C4561-P95
     RDKit          3D

 37 38  0  0  0  0  0  0  0  0999 V2000
   -7.7830  -12.6084   18.2085 O   0  0  0  0  0  0  0  0  0  0  0  0
   -8.9776  -12.6506   18.4228 C   0  0  0  0  0  0  0  0  0  0  0  0
   -9.2848  -13.2656   20.1118 C   0  0  0  0  0  0  0  0  0  0  0  0
   -9.9523  -12.8470   21.9621 C   0  0  0  0  0  0  0  0  0  0  0  0
  -10.8615  -13.4752   23.4618 C   0  0  0  0  0  0  0  0  0  0  0  0
  -11.4401  -14.7399   23.9035 C   0  0  0  0  0  0  0  0  0  0  0  0
  -11.6795  -14.8157   25.2158 N   0  0  0  0  0  0  0  0  0  0  0  0
  -11.3404  -13.5992   25.6559 N   0  0  0  0  0  0  0  0  0  0  0  0
  -10.8470  -12.7785   24.6743 C   0  0  0  0  0  0  0  0  0  0  0  0
  -10.2415  -12.3814   17.3593 N   0  0  0  0  0  0  0  0  0  0  0  0
  -10.2277  -12.0809   15.3791 C   0  0  0  0  0  0  0  0  0  0  0  0
   -9.2855  -11.0034   14.4712 C   0  0  0  0  0  0  0  0  0  0  0  0
   -8.8422  -11.6692   13.1952 C   0  0  0  0  0  0  0  0  0  0  0  0
   -9.6760  -12.6573   12.5930 N   0  0  0  0  0  0  0  0  0  0  0  0
   -9.3730  -13.6796   11.6472 C   0  0  0  0  0  0  0  0  0  0  0  0
   -8.3185  -14.0284   11.1823 O   0  0  0  0  0  0  0  0  0  0  0  0
  -10.6623  -14.3097   11.1225 C   0  0  0  0  0  0  0  0  0  0  0  0
  -11.1939  -13.4123   10.1191 O   0  0  0  0  0  0  0  0  0  0  0  0
   -9.6455  -13.2571   14.1116 C   0  0  0  0  0  0  0  0  0  0  0  0
  -10.0558  -13.7869   19.5351 H   0  0  0  0  0  0  0  0  0  0  0  0
   -8.4628  -13.9743   20.1414 H   0  0  0  0  0  0  0  0  0  0  0  0
   -9.0678  -12.4188   22.4751 H   0  0  0  0  0  0  0  0  0  0  0  0
  -10.6266  -12.0304   22.0870 H   0  0  0  0  0  0  0  0  0  0  0  0
  -11.6781  -15.6212   23.3288 H   0  0  0  0  0  0  0  0  0  0  0  0
  -11.4554  -13.3931   26.6432 H   0  0  0  0  0  0  0  0  0  0  0  0
  -10.4780  -11.7933   24.9200 H   0  0  0  0  0  0  0  0  0  0  0  0
  -11.1159  -12.4084   17.8613 H   0  0  0  0  0  0  0  0  0  0  0  0
  -11.2138  -11.7329   15.5805 H   0  0  0  0  0  0  0  0  0  0  0  0
   -9.7780  -10.0390   14.2956 H   0  0  0  0  0  0  0  0  0  0  0  0
   -8.3177  -10.7429   14.8284 H   0  0  0  0  0  0  0  0  0  0  0  0
   -8.8256  -10.8667   12.4405 H   0  0  0  0  0  0  0  0  0  0  0  0
   -7.7993  -11.9974   13.1354 H   0  0  0  0  0  0  0  0  0  0  0  0
  -11.4001  -14.4571   11.9133 H   0  0  0  0  0  0  0  0  0  0  0  0
  -10.4476  -15.2756   10.6563 H   0  0  0  0  0  0  0  0  0  0  0  0
  -10.4623  -13.2554    9.4931 H   0  0  0  0  0  0  0  0  0  0  0  0
  -10.3003  -14.1245   14.0024 H   0  0  0  0  0  0  0  0  0  0  0  0
   -8.7224  -13.8039   14.2808 H   0  0  0  0  0  0  0  0  0  0  0  0
  1  2  2  0
  2  3  1  0
  3  4  1  0
  4  5  1  0
  5  6  1  0
  6  7  2  0
  7  8  1  0
  8  9  1  0
  2 10  1  0
 10 11  1  0
 11 12  1  0
 12 13  1  0
 13 14  1  0
 14 15  1  0
 15 16  2  0
 15 17  1  0
 17 18  1  0
 14 19  1  0
  9  5  2  0
 19 11  1  0
  3 20  1  0
  3 21  1  0
  4 22  1  0
  4 23  1  0
  6 24  1  0
  8 25  1  0
  9 26  1  0
 10 27  1  0
 11 28  1  0
 12 29  1  0
 12 30  1  0
 13 31  1  0
 13 32  1  0
 17 33  1  0
 17 34  1  0
 18 35  1  0
 19 36  1  0
 19 37  1  0
M  END
>  <Energy>  (1) 
470.91648930966528

>  <compound_id>  (1) 
4561

>  <target_id>  (1) 
1

>  <reference_id>  (1) 
95

>  <inspiration_ids>  (1) 
[95, 123]

>  <energy_score>  (1) 
412.82334783008014

>  <distance_score>  (1) 
13.735420980863534

>  <path>  (1) 
/opt/xchem-fragalysis-2/maxwin/BulkDock/SCRATCH/511018/C4561-P95/C4561-P95.minimised.mol

>  <scratch_subdir>  (1) 
/opt/xchem-fragalysis-2/maxwin/BulkDock/SCRATCH/511018/C4561-P95

>  <fragmenstein_runtime>  (1) 
27.498717069625854

>  <fragmenstein_outcome>  (1) 
too moved

>  <fragmenstein_mode>  (1) 
expansion

>  <fragmenstein_error>  (1) 


$$$$
C4561-P123
     RDKit          3D

 37 38  0  0  0  0  0  0  0  0999 V2000
  -13.4797  -22.3493   17.0659 O   0  0  0  0  0  0  0  0  0  0  0  0
  -12.9585  -21.2798   17.2190 C   0  0  0  0  0  0  0  0  0  0  0  0
  -12.5657  -20.8744   18.6763 C   0  0  0  0  0  0  0  0  0  0  0  0
  -12.9672  -21.9195   19.7681 C   0  0  0  0  0  0  0  0  0  0  0  0
  -12.7303  -21.5598   21.2173 C   0  0  0  0  0  0  0  0  0  0  0  0
  -11.5048  -21.3515   21.8956 C   0  0  0  0  0  0  0  0  0  0  0  0
  -11.6618  -21.0473   23.1864 N   0  0  0  0  0  0  0  0  0  0  0  0
  -12.9735  -21.2401   23.3923 N   0  0  0  0  0  0  0  0  0  0  0  0
  -13.6606  -21.4906   22.2394 C   0  0  0  0  0  0  0  0  0  0  0  0
  -12.5570  -20.2665   16.2409 N   0  0  0  0  0  0  0  0  0  0  0  0
  -12.7548  -20.2038   14.7858 C   0  0  0  0  0  0  0  0  0  0  0  0
  -14.1288  -19.7986   14.3876 C   0  0  0  0  0  0  0  0  0  0  0  0
  -13.7942  -19.3052   13.0176 C   0  0  0  0  0  0  0  0  0  0  0  0
  -12.8217  -18.1871   13.0413 N   0  0  0  0  0  0  0  0  0  0  0  0
  -12.0434  -17.5951   11.9809 C   0  0  0  0  0  0  0  0  0  0  0  0
  -11.9203  -17.9189   10.8242 O   0  0  0  0  0  0  0  0  0  0  0  0
  -11.3496  -16.2729   12.4145 C   0  0  0  0  0  0  0  0  0  0  0  0
  -11.3015  -15.2725   11.3749 O   0  0  0  0  0  0  0  0  0  0  0  0
  -11.9643  -19.2611   13.8227 C   0  0  0  0  0  0  0  0  0  0  0  0
  -11.4779  -20.7591   18.6817 H   0  0  0  0  0  0  0  0  0  0  0  0
  -13.0420  -19.9183   18.9035 H   0  0  0  0  0  0  0  0  0  0  0  0
  -12.4334  -22.8564   19.5603 H   0  0  0  0  0  0  0  0  0  0  0  0
  -14.0336  -22.1508   19.6433 H   0  0  0  0  0  0  0  0  0  0  0  0
  -10.5034  -21.4037   21.4868 H   0  0  0  0  0  0  0  0  0  0  0  0
  -13.3365  -21.1740   24.3435 H   0  0  0  0  0  0  0  0  0  0  0  0
  -14.7325  -21.6266   22.2512 H   0  0  0  0  0  0  0  0  0  0  0  0
  -12.2194  -19.4439   16.7341 H   0  0  0  0  0  0  0  0  0  0  0  0
  -12.5750  -21.2345   14.4500 H   0  0  0  0  0  0  0  0  0  0  0  0
  -14.5363  -19.0044   15.0085 H   0  0  0  0  0  0  0  0  0  0  0  0
  -14.8346  -20.6342   14.3811 H   0  0  0  0  0  0  0  0  0  0  0  0
  -13.4958  -20.0863   12.2973 H   0  0  0  0  0  0  0  0  0  0  0  0
  -14.6994  -18.8726   12.5709 H   0  0  0  0  0  0  0  0  0  0  0  0
  -11.8916  -15.8225   13.2466 H   0  0  0  0  0  0  0  0  0  0  0  0
  -10.3226  -16.5024   12.7083 H   0  0  0  0  0  0  0  0  0  0  0  0
  -11.1151  -15.7754   10.5572 H   0  0  0  0  0  0  0  0  0  0  0  0
  -11.1772  -18.7351   14.3628 H   0  0  0  0  0  0  0  0  0  0  0  0
  -11.4196  -19.8585   13.0713 H   0  0  0  0  0  0  0  0  0  0  0  0
  1  2  2  0
  2  3  1  0
  3  4  1  0
  4  5  1  0
  5  6  1  0
  6  7  2  0
  7  8  1  0
  8  9  1  0
  2 10  1  0
 10 11  1  0
 11 12  1  0
 12 13  1  0
 13 14  1  0
 14 15  1  0
 15 16  2  0
 15 17  1  0
 17 18  1  0
 14 19  1  0
  9  5  2  0
 19 11  1  0
  3 20  1  0
  3 21  1  0
  4 22  1  0
  4 23  1  0
  6 24  1  0
  8 25  1  0
  9 26  1  0
 10 27  1  0
 11 28  1  0
 12 29  1  0
 12 30  1  0
 13 31  1  0
 13 32  1  0
 17 33  1  0
 17 34  1  0
 18 35  1  0
 19 36  1  0
 19 37  1  0
M  END
>  <Energy>  (2) 
97.408429269325083

>  <compound_id>  (2) 
4561

>  <target_id>  (2) 
1

>  <reference_id>  (2) 
123

>  <inspiration_ids>  (2) 
[95, 123]

>  <energy_score>  (2) 
39.31528778973359

>  <distance_score>  (2) 
15.83658994643044

>  <path>  (2) 
/opt/xchem-fragalysis-2/maxwin/BulkDock/SCRATCH/511018/C4561-P123/C4561-P123.minimised.mol

>  <scratch_subdir>  (2) 
/opt/xchem-fragalysis-2/maxwin/BulkDock/SCRATCH/511018/C4561-P123

>  <fragmenstein_runtime>  (2) 
24.58907175064087

>  <fragmenstein_outcome>  (2) 
too moved

>  <fragmenstein_mode>  (2) 
expansion

>  <fragmenstein_error>  (2) 


$$$$
C4565-P95
     RDKit          3D

 40 41  0  0  0  0  0  0  0  0999 V2000
  -14.0019  -20.6971   19.5117 O   0  0  0  0  0  0  0  0  0  0  0  0
  -13.0678  -21.4419   19.5954 C   0  0  0  0  0  0  0  0  0  0  0  0
  -13.0122  -22.4507   20.7725 C   0  0  0  0  0  0  0  0  0  0  0  0
  -13.9958  -22.1128   21.9290 C   0  0  0  0  0  0  0  0  0  0  0  0
  -13.7595  -22.8357   23.2264 C   0  0  0  0  0  0  0  0  0  0  0  0
  -14.4641  -23.9244   23.8042 C   0  0  0  0  0  0  0  0  0  0  0  0
  -13.9576  -24.3196   24.9791 N   0  0  0  0  0  0  0  0  0  0  0  0
  -13.0320  -23.3754   25.2476 N   0  0  0  0  0  0  0  0  0  0  0  0
  -12.8186  -22.5341   24.1866 C   0  0  0  0  0  0  0  0  0  0  0  0
  -11.8514  -21.5284   18.8054 N   0  0  0  0  0  0  0  0  0  0  0  0
  -11.3467  -20.6793   17.7354 C   0  0  0  0  0  0  0  0  0  0  0  0
  -11.3315  -21.1223   16.2604 C   0  0  0  0  0  0  0  0  0  0  0  0
  -12.6472  -21.0847   15.5920 C   0  0  0  0  0  0  0  0  0  0  0  0
  -12.5398  -19.7028   15.0454 C   0  0  0  0  0  0  0  0  0  0  0  0
  -11.3437  -19.4249   14.1991 N   0  0  0  0  0  0  0  0  0  0  0  0
  -10.8949  -20.0367   12.9818 C   0  0  0  0  0  0  0  0  0  0  0  0
  -11.3206  -20.9888   12.3824 O   0  0  0  0  0  0  0  0  0  0  0  0
   -9.7289  -19.1741   12.4015 C   0  0  0  0  0  0  0  0  0  0  0  0
  -10.0170  -17.7876   12.1874 O   0  0  0  0  0  0  0  0  0  0  0  0
  -10.6233  -20.0500   15.4072 C   0  0  0  0  0  0  0  0  0  0  0  0
  -11.9897  -22.4390   21.1676 H   0  0  0  0  0  0  0  0  0  0  0  0
  -13.2247  -23.4492   20.3752 H   0  0  0  0  0  0  0  0  0  0  0  0
  -15.0197  -22.3117   21.5877 H   0  0  0  0  0  0  0  0  0  0  0  0
  -13.9518  -21.0343   22.1322 H   0  0  0  0  0  0  0  0  0  0  0  0
  -15.3102  -24.4610   23.3949 H   0  0  0  0  0  0  0  0  0  0  0  0
  -12.5995  -23.3518   26.1683 H   0  0  0  0  0  0  0  0  0  0  0  0
  -12.1123  -21.7242   24.2464 H   0  0  0  0  0  0  0  0  0  0  0  0
  -11.3159  -22.3377   19.1076 H   0  0  0  0  0  0  0  0  0  0  0  0
  -11.8894  -19.7340   17.8178 H   0  0  0  0  0  0  0  0  0  0  0  0
  -10.3056  -20.4923   18.0183 H   0  0  0  0  0  0  0  0  0  0  0  0
  -10.8566  -22.1049   16.1699 H   0  0  0  0  0  0  0  0  0  0  0  0
  -13.5005  -21.2203   16.2619 H   0  0  0  0  0  0  0  0  0  0  0  0
  -12.7104  -21.8263   14.7878 H   0  0  0  0  0  0  0  0  0  0  0  0
  -13.4030  -19.5762   14.3825 H   0  0  0  0  0  0  0  0  0  0  0  0
  -12.6359  -18.9127   15.8021 H   0  0  0  0  0  0  0  0  0  0  0  0
   -8.8670  -19.2482   13.0725 H   0  0  0  0  0  0  0  0  0  0  0  0
   -9.4371  -19.6018   11.4370 H   0  0  0  0  0  0  0  0  0  0  0  0
  -10.4195  -17.4954   13.0230 H   0  0  0  0  0  0  0  0  0  0  0  0
   -9.6863  -20.4886   15.0346 H   0  0  0  0  0  0  0  0  0  0  0  0
  -10.2933  -19.2090   16.0284 H   0  0  0  0  0  0  0  0  0  0  0  0
  1  2  2  0
  2  3  1  0
  3  4  1  0
  4  5  1  0
  5  6  1  0
  6  7  2  0
  7  8  1  0
  8  9  1  0
  2 10  1  0
 10 11  1  0
 11 12  1  0
 12 13  1  0
 13 14  1  0
 14 15  1  0
 15 16  1  0
 16 17  2  0
 16 18  1  0
 18 19  1  0
 15 20  1  0
  9  5  2  0
 20 12  1  0
  3 21  1  0
  3 22  1  0
  4 23  1  0
  4 24  1  0
  6 25  1  0
  8 26  1  0
  9 27  1  0
 10 28  1  0
 11 29  1  0
 11 30  1  0
 12 31  1  0
 13 32  1  0
 13 33  1  0
 14 34  1  0
 14 35  1  0
 18 36  1  0
 18 37  1  0
 19 38  1  0
 20 39  1  0
 20 40  1  0
M  END
>  <Energy>  (3) 
87.847210167853106

>  <compound_id>  (3) 
4565

>  <target_id>  (3) 
1

>  <reference_id>  (3) 
95

>  <inspiration_ids>  (3) 
[95, 123]

>  <energy_score>  (3) 
43.416495620085584

>  <distance_score>  (3) 
16.447651112418587

>  <path>  (3) 
/opt/xchem-fragalysis-2/maxwin/BulkDock/SCRATCH/511018/C4565-P95/C4565-P95.minimised.mol

>  <scratch_subdir>  (3) 
/opt/xchem-fragalysis-2/maxwin/BulkDock/SCRATCH/511018/C4565-P95

>  <fragmenstein_runtime>  (3) 
21.97802758216858

>  <fragmenstein_outcome>  (3) 
too moved

>  <fragmenstein_mode>  (3) 
expansion

>  <fragmenstein_error>  (3) 


$$$$
C4565-P123
     RDKit          3D

 40 41  0  0  0  0  0  0  0  0999 V2000
  -13.3437  -15.2963   19.0170 O   0  0  0  0  0  0  0  0  0  0  0  0
  -12.4170  -15.6982   19.6080 C   0  0  0  0  0  0  0  0  0  0  0  0
  -13.0127  -17.0992   20.8154 C   0  0  0  0  0  0  0  0  0  0  0  0
  -13.4784  -18.6746   20.7182 C   0  0  0  0  0  0  0  0  0  0  0  0
  -13.2507  -19.6506   21.8547 C   0  0  0  0  0  0  0  0  0  0  0  0
  -12.3003  -20.7164   21.8905 C   0  0  0  0  0  0  0  0  0  0  0  0
  -12.4005  -21.4746   22.9785 N   0  0  0  0  0  0  0  0  0  0  0  0
  -13.4899  -20.9850   23.5724 N   0  0  0  0  0  0  0  0  0  0  0  0
  -13.9898  -19.8540   22.9957 C   0  0  0  0  0  0  0  0  0  0  0  0
  -10.7859  -14.7003   19.3092 N   0  0  0  0  0  0  0  0  0  0  0  0
  -10.4381  -13.0273   18.3371 C   0  0  0  0  0  0  0  0  0  0  0  0
  -11.5128  -11.5643   17.8090 C   0  0  0  0  0  0  0  0  0  0  0  0
  -13.1640  -11.0673   17.6152 C   0  0  0  0  0  0  0  0  0  0  0  0
  -13.4695  -10.9124   16.0535 C   0  0  0  0  0  0  0  0  0  0  0  0
  -12.8072   -9.8530   15.6070 N   0  0  0  0  0  0  0  0  0  0  0  0
  -13.0052   -9.0007   14.2652 C   0  0  0  0  0  0  0  0  0  0  0  0
  -13.7354   -9.1768   13.3087 O   0  0  0  0  0  0  0  0  0  0  0  0
  -12.2334   -7.6399   14.1634 C   0  0  0  0  0  0  0  0  0  0  0  0
  -12.1920   -6.2619   14.5365 O   0  0  0  0  0  0  0  0  0  0  0  0
  -11.5857  -11.2885   15.9996 C   0  0  0  0  0  0  0  0  0  0  0  0
  -14.0595  -16.7250   20.8085 H   0  0  0  0  0  0  0  0  0  0  0  0
  -12.8785  -16.7293   21.8553 H   0  0  0  0  0  0  0  0  0  0  0  0
  -13.0423  -19.1806   19.8494 H   0  0  0  0  0  0  0  0  0  0  0  0
  -14.5627  -18.6782   20.5246 H   0  0  0  0  0  0  0  0  0  0  0  0
  -11.5510  -20.9776   21.1536 H   0  0  0  0  0  0  0  0  0  0  0  0
  -13.8070  -21.4340   24.4267 H   0  0  0  0  0  0  0  0  0  0  0  0
  -14.8539  -19.3523   23.4069 H   0  0  0  0  0  0  0  0  0  0  0  0
  -10.0349  -15.1726   19.7836 H   0  0  0  0  0  0  0  0  0  0  0  0
   -9.4255  -12.6877   18.5963 H   0  0  0  0  0  0  0  0  0  0  0  0
  -10.6903  -13.1180   17.3423 H   0  0  0  0  0  0  0  0  0  0  0  0
  -11.0170  -10.7683   18.3620 H   0  0  0  0  0  0  0  0  0  0  0  0
  -13.3325  -10.2188   18.2665 H   0  0  0  0  0  0  0  0  0  0  0  0
  -13.9775  -11.7071   17.7926 H   0  0  0  0  0  0  0  0  0  0  0  0
  -14.3703  -10.4501   15.6205 H   0  0  0  0  0  0  0  0  0  0  0  0
  -13.5778  -11.9033   15.7589 H   0  0  0  0  0  0  0  0  0  0  0  0
  -11.2668   -7.9211   14.5219 H   0  0  0  0  0  0  0  0  0  0  0  0
  -12.4947   -7.4611   13.1170 H   0  0  0  0  0  0  0  0  0  0  0  0
  -11.3500   -5.8830   14.2195 H   0  0  0  0  0  0  0  0  0  0  0  0
  -10.8065  -10.8318   15.3876 H   0  0  0  0  0  0  0  0  0  0  0  0
  -11.4689  -12.3571   15.7351 H   0  0  0  0  0  0  0  0  0  0  0  0
  1  2  2  0
  2  3  1  0
  3  4  1  0
  4  5  1  0
  5  6  1  0
  6  7  2  0
  7  8  1  0
  8  9  1  0
  2 10  1  0
 10 11  1  0
 11 12  1  0
 12 13  1  0
 13 14  1  0
 14 15  1  0
 15 16  1  0
 16 17  2  0
 16 18  1  0
 18 19  1  0
 15 20  1  0
  9  5  2  0
 20 12  1  0
  3 21  1  0
  3 22  1  0
  4 23  1  0
  4 24  1  0
  6 25  1  0
  8 26  1  0
  9 27  1  0
 10 28  1  0
 11 29  1  0
 11 30  1  0
 12 31  1  0
 13 32  1  0
 13 33  1  0
 14 34  1  0
 14 35  1  0
 18 36  1  0
 18 37  1  0
 19 38  1  0
 20 39  1  0
 20 40  1  0
M  END
>  <Energy>  (4) 
677.27924460712723

>  <compound_id>  (4) 
4565

>  <target_id>  (4) 
1

>  <reference_id>  (4) 
123

>  <inspiration_ids>  (4) 
[95, 123]

>  <energy_score>  (4) 
632.8485300593557

>  <distance_score>  (4) 
12.715461390576731

>  <path>  (4) 
/opt/xchem-fragalysis-2/maxwin/BulkDock/SCRATCH/511018/C4565-P123/C4565-P123.minimised.mol

>  <scratch_subdir>  (4) 
/opt/xchem-fragalysis-2/maxwin/BulkDock/SCRATCH/511018/C4565-P123

>  <fragmenstein_runtime>  (4) 
20.003898859024048

>  <fragmenstein_outcome>  (4) 
too moved

>  <fragmenstein_mode>  (4) 
expansion

>  <fragmenstein_error>  (4) 


$$$$
C4573-P95
     RDKit          3D

 33 35  0  0  0  0  0  0  0  0999 V2000
  -14.6622  -16.7981   20.3347 O   0  0  0  0  0  0  0  0  0  0  0  0
  -13.8702  -16.3158   21.0723 C   0  0  0  0  0  0  0  0  0  0  0  0
  -12.3441  -15.5804   20.0149 C   0  0  0  0  0  0  0  0  0  0  0  0
  -10.7248  -14.7882   19.2261 O   0  0  0  0  0  0  0  0  0  0  0  0
  -10.4351  -13.1993   18.6038 C   0  0  0  0  0  0  0  0  0  0  0  0
  -10.8301  -12.4646   17.3770 C   0  0  0  0  0  0  0  0  0  0  0  0
  -11.4641  -11.5446   18.0148 C   0  0  0  0  0  0  0  0  0  0  0  0
  -10.3654  -11.0440   18.5959 O   0  0  0  0  0  0  0  0  0  0  0  0
   -9.4106  -12.4310   18.9036 N   0  0  0  0  0  0  0  0  0  0  0  0
  -13.8882  -16.2033   22.5493 N   0  0  0  0  0  0  0  0  0  0  0  0
  -14.8089  -16.4653   23.4198 C   0  0  0  0  0  0  0  0  0  0  0  0
  -16.3981  -16.0751   22.8641 C   0  0  0  0  0  0  0  0  0  0  0  0
  -16.5855  -16.3735   24.2441 C   0  0  0  0  0  0  0  0  0  0  0  0
  -15.1690  -17.0290   23.8409 C   0  0  0  0  0  0  0  0  0  0  0  0
  -15.5519  -18.7319   23.5290 C   0  0  0  0  0  0  0  0  0  0  0  0
  -16.8521  -19.3192   23.4672 C   0  0  0  0  0  0  0  0  0  0  0  0
  -16.8462  -20.6499   23.5714 N   0  0  0  0  0  0  0  0  0  0  0  0
  -15.5457  -20.9524   23.6356 N   0  0  0  0  0  0  0  0  0  0  0  0
  -14.7413  -19.8459   23.6166 C   0  0  0  0  0  0  0  0  0  0  0  0
  -12.0474  -16.3519   19.3880 H   0  0  0  0  0  0  0  0  0  0  0  0
  -12.9922  -15.4436   19.1740 H   0  0  0  0  0  0  0  0  0  0  0  0
  -11.2244  -12.6651   16.3845 H   0  0  0  0  0  0  0  0  0  0  0  0
  -12.4667  -11.1072   17.9960 H   0  0  0  0  0  0  0  0  0  0  0  0
  -14.1482  -15.8153   24.4118 H   0  0  0  0  0  0  0  0  0  0  0  0
  -14.8750  -15.2309   23.3929 H   0  0  0  0  0  0  0  0  0  0  0  0
  -16.6361  -15.0328   22.6273 H   0  0  0  0  0  0  0  0  0  0  0  0
  -16.7770  -16.7761   22.1113 H   0  0  0  0  0  0  0  0  0  0  0  0
  -16.4913  -15.5235   24.9298 H   0  0  0  0  0  0  0  0  0  0  0  0
  -17.4090  -17.0301   24.5109 H   0  0  0  0  0  0  0  0  0  0  0  0
  -14.7403  -17.4660   24.8720 H   0  0  0  0  0  0  0  0  0  0  0  0
  -17.8166  -18.8336   23.3992 H   0  0  0  0  0  0  0  0  0  0  0  0
  -15.2636  -21.9183   23.7699 H   0  0  0  0  0  0  0  0  0  0  0  0
  -13.6801  -19.9983   23.7210 H   0  0  0  0  0  0  0  0  0  0  0  0
  1  2  2  0
  2  3  1  0
  3  4  1  0
  4  5  1  0
  5  6  1  0
  6  7  2  0
  7  8  1  0
  8  9  1  0
  2 10  1  0
 10 11  1  0
 11 12  1  0
 12 13  1  0
 13 14  1  0
 14 15  1  0
 15 16  1  0
 16 17  2  0
 17 18  1  0
 18 19  1  0
  9  5  2  0
 14 10  1  0
 19 15  2  0
  3 20  1  0
  3 21  1  0
  6 22  1  0
  7 23  1  0
 11 24  1  0
 11 25  1  0
 12 26  1  0
 12 27  1  0
 13 28  1  0
 13 29  1  0
 14 30  1  0
 16 31  1  0
 18 32  1  0
 19 33  1  0
M  END
>  <Energy>  (5) 
1204.2447044106864

>  <compound_id>  (5) 
4573

>  <target_id>  (5) 
1

>  <reference_id>  (5) 
95

>  <inspiration_ids>  (5) 
[95, 123]

>  <energy_score>  (5) 
1146.913650518732

>  <distance_score>  (5) 
12.517730225329917

>  <path>  (5) 
/opt/xchem-fragalysis-2/maxwin/BulkDock/SCRATCH/511018/C4573-P95/C4573-P95.minimised.mol

>  <scratch_subdir>  (5) 
/opt/xchem-fragalysis-2/maxwin/BulkDock/SCRATCH/511018/C4573-P95

>  <fragmenstein_runtime>  (5) 
15.553430795669556

>  <fragmenstein_outcome>  (5) 
too moved

>  <fragmenstein_mode>  (5) 
expansion

>  <fragmenstein_error>  (5) 


$$$$
C4573-P123
     RDKit          3D

 33 35  0  0  0  0  0  0  0  0999 V2000
   -9.9692  -12.1363   22.1385 O   0  0  0  0  0  0  0  0  0  0  0  0
  -10.3220  -13.1530   21.7590 C   0  0  0  0  0  0  0  0  0  0  0  0
   -9.4844  -13.5076   19.8764 C   0  0  0  0  0  0  0  0  0  0  0  0
   -8.0982  -13.4466   19.7323 O   0  0  0  0  0  0  0  0  0  0  0  0
   -7.4853  -12.5797   18.9129 C   0  0  0  0  0  0  0  0  0  0  0  0
   -7.7534  -12.1099   17.7180 C   0  0  0  0  0  0  0  0  0  0  0  0
   -6.7519  -11.1732   17.4790 C   0  0  0  0  0  0  0  0  0  0  0  0
   -5.6653  -11.8308   17.9564 O   0  0  0  0  0  0  0  0  0  0  0  0
   -6.1617  -12.5309   19.0170 N   0  0  0  0  0  0  0  0  0  0  0  0
  -11.3659  -14.5128   22.6057 N   0  0  0  0  0  0  0  0  0  0  0  0
  -12.1380  -14.1519   24.3214 C   0  0  0  0  0  0  0  0  0  0  0  0
  -11.3209  -13.4588   25.6183 C   0  0  0  0  0  0  0  0  0  0  0  0
  -11.1184  -14.8462   25.7333 C   0  0  0  0  0  0  0  0  0  0  0  0
  -12.0617  -14.8331   24.2774 C   0  0  0  0  0  0  0  0  0  0  0  0
  -13.7818  -15.5569   24.3882 C   0  0  0  0  0  0  0  0  0  0  0  0
  -14.4860  -16.4581   23.5724 C   0  0  0  0  0  0  0  0  0  0  0  0
  -15.6256  -16.8807   24.1261 N   0  0  0  0  0  0  0  0  0  0  0  0
  -15.7750  -16.0934   25.1983 N   0  0  0  0  0  0  0  0  0  0  0  0
  -14.7378  -15.2167   25.3570 C   0  0  0  0  0  0  0  0  0  0  0  0
   -9.6748  -14.4565   19.3441 H   0  0  0  0  0  0  0  0  0  0  0  0
   -9.8577  -12.9058   19.0117 H   0  0  0  0  0  0  0  0  0  0  0  0
   -8.5639  -12.3426   17.0996 H   0  0  0  0  0  0  0  0  0  0  0  0
   -6.4767  -10.4121   16.7526 H   0  0  0  0  0  0  0  0  0  0  0  0
  -11.9889  -12.9707   24.0047 H   0  0  0  0  0  0  0  0  0  0  0  0
  -13.2224  -13.5508   24.6049 H   0  0  0  0  0  0  0  0  0  0  0  0
  -12.0384  -13.0467   26.3399 H   0  0  0  0  0  0  0  0  0  0  0  0
  -10.5299  -12.7368   25.4316 H   0  0  0  0  0  0  0  0  0  0  0  0
  -10.1346  -15.3032   25.6288 H   0  0  0  0  0  0  0  0  0  0  0  0
  -11.5893  -15.0631   26.6950 H   0  0  0  0  0  0  0  0  0  0  0  0
  -11.7395  -15.9675   24.0983 H   0  0  0  0  0  0  0  0  0  0  0  0
  -14.2370  -16.8172   22.5941 H   0  0  0  0  0  0  0  0  0  0  0  0
  -16.6140  -16.1923   25.7621 H   0  0  0  0  0  0  0  0  0  0  0  0
  -14.7238  -14.5216   26.1858 H   0  0  0  0  0  0  0  0  0  0  0  0
  1  2  2  0
  2  3  1  0
  3  4  1  0
  4  5  1  0
  5  6  1  0
  6  7  2  0
  7  8  1  0
  8  9  1  0
  2 10  1  0
 10 11  1  0
 11 12  1  0
 12 13  1  0
 13 14  1  0
 14 15  1  0
 15 16  1  0
 16 17  2  0
 17 18  1  0
 18 19  1  0
  9  5  2  0
 14 10  1  0
 19 15  2  0
  3 20  1  0
  3 21  1  0
  6 22  1  0
  7 23  1  0
 11 24  1  0
 11 25  1  0
 12 26  1  0
 12 27  1  0
 13 28  1  0
 13 29  1  0
 14 30  1  0
 16 31  1  0
 18 32  1  0
 19 33  1  0
M  END
>  <Energy>  (6) 
962.93536309268893

>  <compound_id>  (6) 
4573

>  <target_id>  (6) 
1

>  <reference_id>  (6) 
123

>  <inspiration_ids>  (6) 
[95, 123]

>  <energy_score>  (6) 
905.6043092007619

>  <distance_score>  (6) 
12.999850128733582

>  <path>  (6) 
/opt/xchem-fragalysis-2/maxwin/BulkDock/SCRATCH/511018/C4573-P123/C4573-P123.minimised.mol

>  <scratch_subdir>  (6) 
/opt/xchem-fragalysis-2/maxwin/BulkDock/SCRATCH/511018/C4573-P123

>  <fragmenstein_runtime>  (6) 
16.311662912368774

>  <fragmenstein_outcome>  (6) 
too moved

>  <fragmenstein_mode>  (6) 
expansion

>  <fragmenstein_error>  (6) 


$$$$
C4574-P95
     RDKit          3D

 40 41  0  0  0  0  0  0  0  0999 V2000
  -14.8460  -14.0489   17.9507 O   0  0  0  0  0  0  0  0  0  0  0  0
  -13.8181  -13.7296   18.5174 C   0  0  0  0  0  0  0  0  0  0  0  0
  -13.0416  -14.9426   20.2492 C   0  0  0  0  0  0  0  0  0  0  0  0
  -14.0067  -16.2007   21.2762 C   0  0  0  0  0  0  0  0  0  0  0  0
  -14.8821  -16.6750   22.5344 C   0  0  0  0  0  0  0  0  0  0  0  0
  -16.2210  -17.1632   22.5239 C   0  0  0  0  0  0  0  0  0  0  0  0
  -16.5995  -17.7398   23.6708 N   0  0  0  0  0  0  0  0  0  0  0  0
  -15.5119  -17.6763   24.4415 N   0  0  0  0  0  0  0  0  0  0  0  0
  -14.4780  -17.0305   23.8309 C   0  0  0  0  0  0  0  0  0  0  0  0
  -12.3407  -12.2357   18.0147 N   0  0  0  0  0  0  0  0  0  0  0  0
  -12.1662  -11.1781   16.3782 C   0  0  0  0  0  0  0  0  0  0  0  0
  -10.5426  -10.5812   15.0894 C   0  0  0  0  0  0  0  0  0  0  0  0
  -10.5565   -9.5107   13.8496 C   0  0  0  0  0  0  0  0  0  0  0  0
   -9.1545   -9.0582   13.8356 C   0  0  0  0  0  0  0  0  0  0  0  0
   -8.4659  -10.1813   14.3642 C   0  0  0  0  0  0  0  0  0  0  0  0
   -9.0383  -11.5150   14.3581 N   0  0  0  0  0  0  0  0  0  0  0  0
   -9.4421  -12.3353   13.2741 C   0  0  0  0  0  0  0  0  0  0  0  0
   -9.5032  -12.1040   12.0943 O   0  0  0  0  0  0  0  0  0  0  0  0
   -9.7216  -13.6998   13.7335 C   0  0  0  0  0  0  0  0  0  0  0  0
  -10.5197  -14.3537   12.7631 O   0  0  0  0  0  0  0  0  0  0  0  0
  -12.7985  -15.7518   19.5261 H   0  0  0  0  0  0  0  0  0  0  0  0
  -12.0821  -15.2396   20.6663 H   0  0  0  0  0  0  0  0  0  0  0  0
  -14.5000  -16.7644   20.4733 H   0  0  0  0  0  0  0  0  0  0  0  0
  -13.0915  -16.3821   21.7981 H   0  0  0  0  0  0  0  0  0  0  0  0
  -16.9203  -17.1508   21.6963 H   0  0  0  0  0  0  0  0  0  0  0  0
  -15.5470  -18.1021   25.3626 H   0  0  0  0  0  0  0  0  0  0  0  0
  -13.5425  -16.8929   24.3467 H   0  0  0  0  0  0  0  0  0  0  0  0
  -11.5375  -12.2496   18.6313 H   0  0  0  0  0  0  0  0  0  0  0  0
  -13.1668  -10.8726   16.0639 H   0  0  0  0  0  0  0  0  0  0  0  0
  -11.7047  -12.1232   16.0591 H   0  0  0  0  0  0  0  0  0  0  0  0
  -10.0250   -9.7586   15.4497 H   0  0  0  0  0  0  0  0  0  0  0  0
  -10.5177   -9.9505   12.8426 H   0  0  0  0  0  0  0  0  0  0  0  0
  -11.4973   -8.9567   13.9588 H   0  0  0  0  0  0  0  0  0  0  0  0
   -8.9611   -8.2248   14.5118 H   0  0  0  0  0  0  0  0  0  0  0  0
   -8.7284   -9.0016   12.8313 H   0  0  0  0  0  0  0  0  0  0  0  0
   -7.7918  -10.4019   13.5046 H   0  0  0  0  0  0  0  0  0  0  0  0
   -7.5955   -9.8315   14.9324 H   0  0  0  0  0  0  0  0  0  0  0  0
  -10.2348  -13.5705   14.6372 H   0  0  0  0  0  0  0  0  0  0  0  0
   -8.8183  -14.1785   14.0816 H   0  0  0  0  0  0  0  0  0  0  0  0
  -10.3254  -13.8615   11.9386 H   0  0  0  0  0  0  0  0  0  0  0  0
  1  2  2  0
  2  3  1  0
  3  4  1  0
  4  5  1  0
  5  6  1  0
  6  7  2  0
  7  8  1  0
  8  9  1  0
  2 10  1  0
 10 11  1  0
 11 12  1  0
 12 13  1  0
 13 14  1  0
 14 15  1  0
 15 16  1  0
 16 17  1  0
 17 18  2  0
 17 19  1  0
 19 20  1  0
  9  5  2  0
 16 12  1  0
  3 21  1  0
  3 22  1  0
  4 23  1  0
  4 24  1  0
  6 25  1  0
  8 26  1  0
  9 27  1  0
 10 28  1  0
 11 29  1  0
 11 30  1  0
 12 31  1  0
 13 32  1  0
 13 33  1  0
 14 34  1  0
 14 35  1  0
 15 36  1  0
 15 37  1  0
 19 38  1  0
 19 39  1  0
 20 40  1  0
M  END
>  <Energy>  (7) 
943.00079154055959

>  <compound_id>  (7) 
4574

>  <target_id>  (7) 
1

>  <reference_id>  (7) 
95

>  <inspiration_ids>  (7) 
[95, 123]

>  <energy_score>  (7) 
875.6606336156242

>  <distance_score>  (7) 
13.149322611943393

>  <path>  (7) 
/opt/xchem-fragalysis-2/maxwin/BulkDock/SCRATCH/511018/C4574-P95/C4574-P95.minimised.mol

>  <scratch_subdir>  (7) 
/opt/xchem-fragalysis-2/maxwin/BulkDock/SCRATCH/511018/C4574-P95

>  <fragmenstein_runtime>  (7) 
36.18972826004028

>  <fragmenstein_outcome>  (7) 
too moved

>  <fragmenstein_mode>  (7) 
expansion

>  <fragmenstein_error>  (7) 


$$$$
C4574-P123
     RDKit          3D

 40 41  0  0  0  0  0  0  0  0999 V2000
  -12.6794  -10.0357   26.1275 O   0  0  0  0  0  0  0  0  0  0  0  0
  -11.7503  -10.4823   25.5167 C   0  0  0  0  0  0  0  0  0  0  0  0
  -11.2517  -11.9570   25.8580 C   0  0  0  0  0  0  0  0  0  0  0  0
  -12.0986  -12.6616   26.9667 C   0  0  0  0  0  0  0  0  0  0  0  0
  -11.7598  -14.0531   27.4722 C   0  0  0  0  0  0  0  0  0  0  0  0
  -10.5964  -14.8565   27.3800 C   0  0  0  0  0  0  0  0  0  0  0  0
  -10.6985  -16.0264   28.0286 N   0  0  0  0  0  0  0  0  0  0  0  0
  -11.9159  -15.9641   28.5968 N   0  0  0  0  0  0  0  0  0  0  0  0
  -12.5932  -14.8292   28.2623 C   0  0  0  0  0  0  0  0  0  0  0  0
  -10.9145   -9.8793   24.4837 N   0  0  0  0  0  0  0  0  0  0  0  0
  -10.8872   -8.4802   23.9287 C   0  0  0  0  0  0  0  0  0  0  0  0
  -12.0955   -8.0524   22.9915 C   0  0  0  0  0  0  0  0  0  0  0  0
  -12.9839   -7.0257   23.6910 C   0  0  0  0  0  0  0  0  0  0  0  0
  -13.8884   -6.6162   22.5702 C   0  0  0  0  0  0  0  0  0  0  0  0
  -13.3295   -7.4872   21.4804 C   0  0  0  0  0  0  0  0  0  0  0  0
  -11.8336   -7.4627   21.5043 N   0  0  0  0  0  0  0  0  0  0  0  0
  -10.9179   -6.3616   21.5497 C   0  0  0  0  0  0  0  0  0  0  0  0
  -11.1205   -5.1771   21.6708 O   0  0  0  0  0  0  0  0  0  0  0  0
   -9.4643   -6.7667   21.2972 C   0  0  0  0  0  0  0  0  0  0  0  0
   -9.1116   -6.3512   19.9535 O   0  0  0  0  0  0  0  0  0  0  0  0
  -10.2093  -11.8857   26.1894 H   0  0  0  0  0  0  0  0  0  0  0  0
  -11.2788  -12.5489   24.9370 H   0  0  0  0  0  0  0  0  0  0  0  0
  -13.1415  -12.6815   26.6222 H   0  0  0  0  0  0  0  0  0  0  0  0
  -12.0954  -12.0032   27.8470 H   0  0  0  0  0  0  0  0  0  0  0  0
   -9.6691  -14.6311   26.8695 H   0  0  0  0  0  0  0  0  0  0  0  0
  -12.2543  -16.7379   29.1649 H   0  0  0  0  0  0  0  0  0  0  0  0
  -13.5936  -14.6582   28.6363 H   0  0  0  0  0  0  0  0  0  0  0  0
  -10.1661  -10.5207   24.2470 H   0  0  0  0  0  0  0  0  0  0  0  0
  -10.8410   -7.8214   24.8026 H   0  0  0  0  0  0  0  0  0  0  0  0
   -9.9365   -8.4020   23.4007 H   0  0  0  0  0  0  0  0  0  0  0  0
  -12.6248   -9.0139   22.8713 H   0  0  0  0  0  0  0  0  0  0  0  0
  -13.5294   -7.4660   24.5317 H   0  0  0  0  0  0  0  0  0  0  0  0
  -12.4136   -6.1682   24.0647 H   0  0  0  0  0  0  0  0  0  0  0  0
  -13.7849   -5.5494   22.3462 H   0  0  0  0  0  0  0  0  0  0  0  0
  -14.9432   -6.8274   22.7677 H   0  0  0  0  0  0  0  0  0  0  0  0
  -13.5991   -7.0277   20.5200 H   0  0  0  0  0  0  0  0  0  0  0  0
  -13.7820   -8.4828   21.4373 H   0  0  0  0  0  0  0  0  0  0  0  0
   -8.8063   -6.2648   22.0121 H   0  0  0  0  0  0  0  0  0  0  0  0
   -9.3125   -7.8377   21.3655 H   0  0  0  0  0  0  0  0  0  0  0  0
   -9.3772   -5.4119   19.9000 H   0  0  0  0  0  0  0  0  0  0  0  0
  1  2  2  0
  2  3  1  0
  3  4  1  0
  4  5  1  0
  5  6  1  0
  6  7  2  0
  7  8  1  0
  8  9  1  0
  2 10  1  0
 10 11  1  0
 11 12  1  0
 12 13  1  0
 13 14  1  0
 14 15  1  0
 15 16  1  0
 16 17  1  0
 17 18  2  0
 17 19  1  0
 19 20  1  0
  9  5  2  0
 16 12  1  0
  3 21  1  0
  3 22  1  0
  4 23  1  0
  4 24  1  0
  6 25  1  0
  8 26  1  0
  9 27  1  0
 10 28  1  0
 11 29  1  0
 11 30  1  0
 12 31  1  0
 13 32  1  0
 13 33  1  0
 14 34  1  0
 14 35  1  0
 15 36  1  0
 15 37  1  0
 19 38  1  0
 19 39  1  0
 20 40  1  0
M  END
>  <Energy>  (8) 
113.277417295438

>  <compound_id>  (8) 
4574

>  <target_id>  (8) 
1

>  <reference_id>  (8) 
123

>  <inspiration_ids>  (8) 
[95, 123]

>  <energy_score>  (8) 
45.937259370503796

>  <distance_score>  (8) 
15.211318549873175

>  <path>  (8) 
/opt/xchem-fragalysis-2/maxwin/BulkDock/SCRATCH/511018/C4574-P123/C4574-P123.minimised.mol

>  <scratch_subdir>  (8) 
/opt/xchem-fragalysis-2/maxwin/BulkDock/SCRATCH/511018/C4574-P123

>  <fragmenstein_runtime>  (8) 
41.26354098320007

>  <fragmenstein_outcome>  (8) 
too moved

>  <fragmenstein_mode>  (8) 
expansion

>  <fragmenstein_error>  (8) 


$$$$
C4586-P93
     RDKit          3D

 34 35  0  0  0  0  0  0  0  0999 V2000
    0.7850   -1.0801   14.6149 C   0  0  0  0  0  0  0  0  0  0  0  0
   -0.4517   -1.1199   13.8079 N   0  0  0  0  0  0  0  0  0  0  0  0
   -0.3284   -0.5148   12.4102 C   0  0  0  0  0  0  0  0  0  0  0  0
   -0.1054   -1.0929   10.5124 C   0  0  0  0  0  0  0  0  0  0  0  0
   -1.7465   -0.7943    9.2801 C   0  0  0  0  0  0  0  0  0  0  0  0
   -2.1269   -1.4493    8.1262 C   0  0  0  0  0  0  0  0  0  0  0  0
   -3.7343   -1.7347    7.7930 S   0  0  0  0  0  0  0  0  0  0  0  0
   -4.0606   -0.2873    8.5613 C   0  0  0  0  0  0  0  0  0  0  0  0
   -5.4684    0.2763    8.2409 C   0  0  0  0  0  0  0  0  0  0  0  0
   -6.2024   -0.2528    7.0489 N   0  0  0  0  0  0  0  0  0  0  0  0
   -7.0129   -1.4499    7.3423 C   0  0  0  0  0  0  0  0  0  0  0  0
   -7.9949   -1.5310    6.1821 C   0  0  0  0  0  0  0  0  0  0  0  0
   -8.0607   -0.1179    5.6244 C   0  0  0  0  0  0  0  0  0  0  0  0
   -7.1918    0.7121    6.5567 C   0  0  0  0  0  0  0  0  0  0  0  0
   -2.9872    0.1536    9.2885 N   0  0  0  0  0  0  0  0  0  0  0  0
    1.5922   -1.6731   14.1778 H   0  0  0  0  0  0  0  0  0  0  0  0
    1.1228   -0.0481   14.7551 H   0  0  0  0  0  0  0  0  0  0  0  0
    0.5689   -1.4889   15.6068 H   0  0  0  0  0  0  0  0  0  0  0  0
   -0.8876   -2.0376   13.8030 H   0  0  0  0  0  0  0  0  0  0  0  0
   -1.1578    0.1855   12.4604 H   0  0  0  0  0  0  0  0  0  0  0  0
    0.7327   -0.3191   12.5728 H   0  0  0  0  0  0  0  0  0  0  0  0
    0.6892   -0.4750   10.1037 H   0  0  0  0  0  0  0  0  0  0  0  0
    0.6745   -1.7885   10.1896 H   0  0  0  0  0  0  0  0  0  0  0  0
   -1.5025   -1.6903    7.3361 H   0  0  0  0  0  0  0  0  0  0  0  0
   -5.3191    1.3365    8.0326 H   0  0  0  0  0  0  0  0  0  0  0  0
   -6.1219    0.1570    9.1052 H   0  0  0  0  0  0  0  0  0  0  0  0
   -6.4266   -2.3684    7.3915 H   0  0  0  0  0  0  0  0  0  0  0  0
   -7.5701   -1.3406    8.2808 H   0  0  0  0  0  0  0  0  0  0  0  0
   -7.6359   -2.2210    5.4097 H   0  0  0  0  0  0  0  0  0  0  0  0
   -8.9770   -1.8807    6.5165 H   0  0  0  0  0  0  0  0  0  0  0  0
   -7.6559   -0.1028    4.6054 H   0  0  0  0  0  0  0  0  0  0  0  0
   -9.0873    0.2592    5.5836 H   0  0  0  0  0  0  0  0  0  0  0  0
   -6.7221    1.5466    6.0263 H   0  0  0  0  0  0  0  0  0  0  0  0
   -7.8024    1.1161    7.3749 H   0  0  0  0  0  0  0  0  0  0  0  0
  1  2  1  0
  2  3  1  0
  3  4  1  0
  4  5  1  0
  5  6  2  0
  6  7  1  0
  7  8  1  0
  8  9  1  0
  9 10  1  0
 10 11  1  0
 11 12  1  0
 12 13  1  0
 13 14  1  0
  8 15  2  0
 15  5  1  0
 14 10  1  0
  1 16  1  0
  1 17  1  0
  1 18  1  0
  2 19  1  0
  3 20  1  0
  3 21  1  0
  4 22  1  0
  4 23  1  0
  6 24  1  0
  9 25  1  0
  9 26  1  0
 11 27  1  0
 11 28  1  0
 12 29  1  0
 12 30  1  0
 13 31  1  0
 13 32  1  0
 14 33  1  0
 14 34  1  0
M  END
>  <Energy>  (9) 
295.36328239905464

>  <compound_id>  (9) 
4586

>  <target_id>  (9) 
1

>  <reference_id>  (9) 
93

>  <inspiration_ids>  (9) 
[93, 95]

>  <energy_score>  (9) 
199.15633935359318

>  <distance_score>  (9) 
8.54761014317884

>  <path>  (9) 
/opt/xchem-fragalysis-2/maxwin/BulkDock/SCRATCH/511018/C4586-P93/C4586-P93.minimised.mol

>  <scratch_subdir>  (9) 
/opt/xchem-fragalysis-2/maxwin/BulkDock/SCRATCH/511018/C4586-P93

>  <fragmenstein_runtime>  (9) 
3.990427017211914

>  <fragmenstein_outcome>  (9) 
too moved

>  <fragmenstein_mode>  (9) 
expansion

>  <fragmenstein_error>  (9) 


$$$$
C4586-P95
     RDKit          3D

 34 35  0  0  0  0  0  0  0  0999 V2000
    6.8118   -0.0304   13.2128 C   0  0  0  0  0  0  0  0  0  0  0  0
    5.6852   -0.9610   13.2423 N   0  0  0  0  0  0  0  0  0  0  0  0
    4.8947   -0.9013   11.9962 C   0  0  0  0  0  0  0  0  0  0  0  0
    3.5545   -1.6867   12.1126 C   0  0  0  0  0  0  0  0  0  0  0  0
    2.7128   -1.8988   10.8058 C   0  0  0  0  0  0  0  0  0  0  0  0
    3.1865   -2.6419    9.5262 C   0  0  0  0  0  0  0  0  0  0  0  0
    1.5468   -2.4805    8.0263 S   0  0  0  0  0  0  0  0  0  0  0  0
    0.3865   -1.4582    9.5842 C   0  0  0  0  0  0  0  0  0  0  0  0
   -1.5890   -1.2751    8.8580 C   0  0  0  0  0  0  0  0  0  0  0  0
   -3.1038   -1.9826    8.5565 N   0  0  0  0  0  0  0  0  0  0  0  0
   -4.1263   -0.8440    8.5885 C   0  0  0  0  0  0  0  0  0  0  0  0
   -5.3530   -1.2070    7.7588 C   0  0  0  0  0  0  0  0  0  0  0  0
   -4.9107   -2.3815    6.9328 C   0  0  0  0  0  0  0  0  0  0  0  0
   -3.4072   -2.4587    7.1862 C   0  0  0  0  0  0  0  0  0  0  0  0
    1.1202   -1.5241   10.7675 N   0  0  0  0  0  0  0  0  0  0  0  0
    7.3457   -0.0980   12.2672 H   0  0  0  0  0  0  0  0  0  0  0  0
    7.5013   -0.2554   14.0310 H   0  0  0  0  0  0  0  0  0  0  0  0
    6.4625    1.0004   13.3330 H   0  0  0  0  0  0  0  0  0  0  0  0
    5.0947   -0.7286   14.0403 H   0  0  0  0  0  0  0  0  0  0  0  0
    5.4898   -1.3201   11.1764 H   0  0  0  0  0  0  0  0  0  0  0  0
    4.6628    0.1411   11.7451 H   0  0  0  0  0  0  0  0  0  0  0  0
    2.9060   -1.1759   12.8351 H   0  0  0  0  0  0  0  0  0  0  0  0
    3.7615   -2.6864   12.5157 H   0  0  0  0  0  0  0  0  0  0  0  0
    4.0649   -3.1590    9.1619 H   0  0  0  0  0  0  0  0  0  0  0  0
   -1.9783   -0.2621    8.8496 H   0  0  0  0  0  0  0  0  0  0  0  0
   -1.5709   -1.3063    7.7508 H   0  0  0  0  0  0  0  0  0  0  0  0
   -3.7089    0.0568    8.1492 H   0  0  0  0  0  0  0  0  0  0  0  0
   -4.4318   -0.5436    9.5860 H   0  0  0  0  0  0  0  0  0  0  0  0
   -6.2173   -1.4564    8.3790 H   0  0  0  0  0  0  0  0  0  0  0  0
   -5.6478   -0.3669    7.1202 H   0  0  0  0  0  0  0  0  0  0  0  0
   -5.4253   -3.2939    7.2371 H   0  0  0  0  0  0  0  0  0  0  0  0
   -5.1288   -2.2354    5.8693 H   0  0  0  0  0  0  0  0  0  0  0  0
   -3.0929   -3.4884    7.0268 H   0  0  0  0  0  0  0  0  0  0  0  0
   -2.9939   -1.7641    6.4568 H   0  0  0  0  0  0  0  0  0  0  0  0
  1  2  1  0
  2  3  1  0
  3  4  1  0
  4  5  1  0
  5  6  2  0
  6  7  1  0
  7  8  1  0
  8  9  1  0
  9 10  1  0
 10 11  1  0
 11 12  1  0
 12 13  1  0
 13 14  1  0
  8 15  2  0
 15  5  1  0
 14 10  1  0
  1 16  1  0
  1 17  1  0
  1 18  1  0
  2 19  1  0
  3 20  1  0
  3 21  1  0
  4 22  1  0
  4 23  1  0
  6 24  1  0
  9 25  1  0
  9 26  1  0
 11 27  1  0
 11 28  1  0
 12 29  1  0
 12 30  1  0
 13 31  1  0
 13 32  1  0
 14 33  1  0
 14 34  1  0
M  END
>  <Energy>  (10) 
331.22264772963604

>  <compound_id>  (10) 
4586

>  <target_id>  (10) 
1

>  <reference_id>  (10) 
95

>  <inspiration_ids>  (10) 
[93, 95]

>  <energy_score>  (10) 
235.01570468417202

>  <distance_score>  (10) 
8.35173893740298

>  <path>  (10) 
/opt/xchem-fragalysis-2/maxwin/BulkDock/SCRATCH/511018/C4586-P95/C4586-P95.minimised.mol

>  <scratch_subdir>  (10) 
/opt/xchem-fragalysis-2/maxwin/BulkDock/SCRATCH/511018/C4586-P95

>  <fragmenstein_runtime>  (10) 
4.611275911331177

>  <fragmenstein_outcome>  (10) 
too moved

>  <fragmenstein_mode>  (10) 
expansion

>  <fragmenstein_error>  (10) 


$$$$
C4587-P93
     RDKit          3D

 34 35  0  0  0  0  0  0  0  0999 V2000
    3.6440   -0.2655   12.4294 C   0  0  0  0  0  0  0  0  0  0  0  0
    2.2603   -0.7410   12.3372 N   0  0  0  0  0  0  0  0  0  0  0  0
    1.6553   -1.0875   10.8122 C   0  0  0  0  0  0  0  0  0  0  0  0
    0.0647   -1.1624   10.2602 C   0  0  0  0  0  0  0  0  0  0  0  0
   -1.6626   -0.9998    9.0760 C   0  0  0  0  0  0  0  0  0  0  0  0
   -2.7651   -2.2566    8.7056 N   0  0  0  0  0  0  0  0  0  0  0  0
   -3.9065   -1.9424    8.0438 C   0  0  0  0  0  0  0  0  0  0  0  0
   -5.2355   -2.2765    7.8443 N   0  0  0  0  0  0  0  0  0  0  0  0
   -5.6799   -3.0850    6.7269 C   0  0  0  0  0  0  0  0  0  0  0  0
   -7.1711   -3.2848    6.9375 C   0  0  0  0  0  0  0  0  0  0  0  0
   -7.6010   -1.9388    7.5090 C   0  0  0  0  0  0  0  0  0  0  0  0
   -6.3059   -1.2580    7.9988 C   0  0  0  0  0  0  0  0  0  0  0  0
   -3.3628   -0.7627    7.1382 S   0  0  0  0  0  0  0  0  0  0  0  0
   -2.5517   -0.0797    8.5063 C   0  0  0  0  0  0  0  0  0  0  0  0
   -3.6083    0.7886    8.9698 C   0  0  0  0  0  0  0  0  0  0  0  0
    3.8113    0.6082   11.7930 H   0  0  0  0  0  0  0  0  0  0  0  0
    3.8451    0.0339   13.4631 H   0  0  0  0  0  0  0  0  0  0  0  0
    4.3582   -1.0586   12.1902 H   0  0  0  0  0  0  0  0  0  0  0  0
    1.6187   -0.1565   12.8623 H   0  0  0  0  0  0  0  0  0  0  0  0
    2.1053   -2.0620   10.5664 H   0  0  0  0  0  0  0  0  0  0  0  0
    2.0819   -0.2962   10.1713 H   0  0  0  0  0  0  0  0  0  0  0  0
    0.4940   -0.2951    9.8987 H   0  0  0  0  0  0  0  0  0  0  0  0
    0.5830   -1.8988    9.5702 H   0  0  0  0  0  0  0  0  0  0  0  0
   -5.6318   -2.4866    5.8393 H   0  0  0  0  0  0  0  0  0  0  0  0
   -5.1041   -3.9844    6.5957 H   0  0  0  0  0  0  0  0  0  0  0  0
   -7.3805   -4.0989    7.6373 H   0  0  0  0  0  0  0  0  0  0  0  0
   -7.6915   -3.5205    6.0038 H   0  0  0  0  0  0  0  0  0  0  0  0
   -8.0785   -1.3214    6.7396 H   0  0  0  0  0  0  0  0  0  0  0  0
   -8.3285   -2.0665    8.3150 H   0  0  0  0  0  0  0  0  0  0  0  0
   -6.4078   -0.9131    9.0292 H   0  0  0  0  0  0  0  0  0  0  0  0
   -6.1311   -0.3808    7.3649 H   0  0  0  0  0  0  0  0  0  0  0  0
   -4.5221    0.8924    8.3609 H   0  0  0  0  0  0  0  0  0  0  0  0
   -3.2453    1.8117    9.0167 H   0  0  0  0  0  0  0  0  0  0  0  0
   -4.0075    0.2569    9.8190 H   0  0  0  0  0  0  0  0  0  0  0  0
  1  2  1  0
  2  3  1  0
  3  4  1  0
  4  5  1  0
  5  6  1  0
  6  7  2  0
  7  8  1  0
  8  9  1  0
  9 10  1  0
 10 11  1  0
 11 12  1  0
  7 13  1  0
 13 14  1  0
 14 15  1  0
 14  5  2  0
 12  8  1  0
  1 16  1  0
  1 17  1  0
  1 18  1  0
  2 19  1  0
  3 20  1  0
  3 21  1  0
  4 22  1  0
  4 23  1  0
  9 24  1  0
  9 25  1  0
 10 26  1  0
 10 27  1  0
 11 28  1  0
 11 29  1  0
 12 30  1  0
 12 31  1  0
 15 32  1  0
 15 33  1  0
 15 34  1  0
M  END
>  <Energy>  (11) 
391.33456032413886

>  <compound_id>  (11) 
4587

>  <target_id>  (11) 
1

>  <reference_id>  (11) 
93

>  <inspiration_ids>  (11) 
[93, 95]

>  <energy_score>  (11) 
329.1296557539846

>  <distance_score>  (11) 
7.921963787849153

>  <path>  (11) 
/opt/xchem-fragalysis-2/maxwin/BulkDock/SCRATCH/511018/C4587-P93/C4587-P93.minimised.mol

>  <scratch_subdir>  (11) 
/opt/xchem-fragalysis-2/maxwin/BulkDock/SCRATCH/511018/C4587-P93

>  <fragmenstein_runtime>  (11) 
3.3919687271118164

>  <fragmenstein_outcome>  (11) 
too moved

>  <fragmenstein_mode>  (11) 
expansion

>  <fragmenstein_error>  (11) 


$$$$
C4587-P95
     RDKit          3D

 34 35  0  0  0  0  0  0  0  0999 V2000
    2.6903   -0.5996   12.5149 C   0  0  0  0  0  0  0  0  0  0  0  0
    1.2321   -0.5748   12.7292 N   0  0  0  0  0  0  0  0  0  0  0  0
    0.2673   -1.1518   11.5594 C   0  0  0  0  0  0  0  0  0  0  0  0
   -0.0054   -1.0819    9.8121 C   0  0  0  0  0  0  0  0  0  0  0  0
   -1.8245   -1.2260    8.8319 C   0  0  0  0  0  0  0  0  0  0  0  0
   -2.2636   -0.6660    7.4840 N   0  0  0  0  0  0  0  0  0  0  0  0
   -3.6021   -0.7710    7.1732 C   0  0  0  0  0  0  0  0  0  0  0  0
   -4.3943   -0.8945    6.0514 N   0  0  0  0  0  0  0  0  0  0  0  0
   -3.9534   -1.0609    4.6872 C   0  0  0  0  0  0  0  0  0  0  0  0
   -5.1341   -1.7622    4.0153 C   0  0  0  0  0  0  0  0  0  0  0  0
   -6.3262   -1.1062    4.6852 C   0  0  0  0  0  0  0  0  0  0  0  0
   -5.8614   -0.9686    6.1316 C   0  0  0  0  0  0  0  0  0  0  0  0
   -4.3077   -0.7833    8.7132 S   0  0  0  0  0  0  0  0  0  0  0  0
   -2.9659   -2.1477    8.6858 C   0  0  0  0  0  0  0  0  0  0  0  0
   -3.4461   -3.2819    7.6863 C   0  0  0  0  0  0  0  0  0  0  0  0
    2.9917    0.1670   11.7992 H   0  0  0  0  0  0  0  0  0  0  0  0
    3.0514   -1.5803   12.1956 H   0  0  0  0  0  0  0  0  0  0  0  0
    3.1853   -0.3552   13.4603 H   0  0  0  0  0  0  0  0  0  0  0  0
    1.0082   -1.0805   13.5866 H   0  0  0  0  0  0  0  0  0  0  0  0
   -0.7290   -1.0959   11.9776 H   0  0  0  0  0  0  0  0  0  0  0  0
    1.0535   -1.7838   11.2225 H   0  0  0  0  0  0  0  0  0  0  0  0
    0.4865   -1.8951    9.3050 H   0  0  0  0  0  0  0  0  0  0  0  0
    0.9095   -0.5467    9.4080 H   0  0  0  0  0  0  0  0  0  0  0  0
   -3.7892   -0.0854    4.2163 H   0  0  0  0  0  0  0  0  0  0  0  0
   -3.0511   -1.6507    4.5764 H   0  0  0  0  0  0  0  0  0  0  0  0
   -5.1162   -2.8357    4.2402 H   0  0  0  0  0  0  0  0  0  0  0  0
   -5.1327   -1.6349    2.9293 H   0  0  0  0  0  0  0  0  0  0  0  0
   -6.5038   -0.1151    4.2506 H   0  0  0  0  0  0  0  0  0  0  0  0
   -7.2454   -1.6910    4.5920 H   0  0  0  0  0  0  0  0  0  0  0  0
   -6.1819   -1.8509    6.6970 H   0  0  0  0  0  0  0  0  0  0  0  0
   -6.2965   -0.0713    6.5854 H   0  0  0  0  0  0  0  0  0  0  0  0
   -2.9727   -3.2729    6.7294 H   0  0  0  0  0  0  0  0  0  0  0  0
   -4.5111   -3.2032    7.4367 H   0  0  0  0  0  0  0  0  0  0  0  0
   -3.3246   -4.2688    8.1208 H   0  0  0  0  0  0  0  0  0  0  0  0
  1  2  1  0
  2  3  1  0
  3  4  1  0
  4  5  1  0
  5  6  1  0
  6  7  2  0
  7  8  1  0
  8  9  1  0
  9 10  1  0
 10 11  1  0
 11 12  1  0
  7 13  1  0
 13 14  1  0
 14 15  1  0
 14  5  2  0
 12  8  1  0
  1 16  1  0
  1 17  1  0
  1 18  1  0
  2 19  1  0
  3 20  1  0
  3 21  1  0
  4 22  1  0
  4 23  1  0
  9 24  1  0
  9 25  1  0
 10 26  1  0
 10 27  1  0
 11 28  1  0
 11 29  1  0
 12 30  1  0
 12 31  1  0
 15 32  1  0
 15 33  1  0
 15 34  1  0
M  END
>  <Energy>  (12) 
314.44548983589954

>  <compound_id>  (12) 
4587

>  <target_id>  (12) 
1

>  <reference_id>  (12) 
95

>  <inspiration_ids>  (12) 
[93, 95]

>  <energy_score>  (12) 
252.24058526574925

>  <distance_score>  (12) 
8.409791197385362

>  <path>  (12) 
/opt/xchem-fragalysis-2/maxwin/BulkDock/SCRATCH/511018/C4587-P95/C4587-P95.minimised.mol

>  <scratch_subdir>  (12) 
/opt/xchem-fragalysis-2/maxwin/BulkDock/SCRATCH/511018/C4587-P95

>  <fragmenstein_runtime>  (12) 
3.931304931640625

>  <fragmenstein_outcome>  (12) 
too moved

>  <fragmenstein_mode>  (12) 
expansion

>  <fragmenstein_error>  (12) 


$$$$
C4602-P93
     RDKit          3D

 49 51  0  0  0  0  0  0  0  0999 V2000
    2.9494    1.9583    7.2286 C   0  0  0  0  0  0  0  0  0  0  0  0
    2.2097    0.5347    7.9234 C   0  0  0  0  0  0  0  0  0  0  0  0
    2.3846    1.3591    9.3468 N   0  0  0  0  0  0  0  0  0  0  0  0
    3.7296    1.6872    9.9006 C   0  0  0  0  0  0  0  0  0  0  0  0
    4.0748    3.2031   10.1592 C   0  0  0  0  0  0  0  0  0  0  0  0
    5.4839    3.5751    9.5754 C   0  0  0  0  0  0  0  0  0  0  0  0
    6.4693    4.2238   10.5061 C   0  0  0  0  0  0  0  0  0  0  0  0
    6.1194    4.7572   11.6806 C   0  0  0  0  0  0  0  0  0  0  0  0
    4.7071    4.7403   12.1678 C   0  0  0  0  0  0  0  0  0  0  0  0
    3.8751    3.5659   11.6507 C   0  0  0  0  0  0  0  0  0  0  0  0
    1.6517   -1.4631    7.8684 C   0  0  0  0  0  0  0  0  0  0  0  0
    0.8261   -1.9725    6.6678 C   0  0  0  0  0  0  0  0  0  0  0  0
   -0.4257   -1.4555    6.4468 C   0  0  0  0  0  0  0  0  0  0  0  0
   -1.6262   -1.2550    7.3150 C   0  0  0  0  0  0  0  0  0  0  0  0
   -1.3912   -1.6912    8.4661 C   0  0  0  0  0  0  0  0  0  0  0  0
   -2.9513   -1.9707    8.7341 N   0  0  0  0  0  0  0  0  0  0  0  0
   -3.7245   -0.5697    8.8513 C   0  0  0  0  0  0  0  0  0  0  0  0
   -4.8465   -0.4763    7.8066 C   0  0  0  0  0  0  0  0  0  0  0  0
   -5.2516   -1.9001    7.6232 C   0  0  0  0  0  0  0  0  0  0  0  0
   -3.8880   -2.6359    7.6761 C   0  0  0  0  0  0  0  0  0  0  0  0
    0.5286   -2.1689    8.9453 C   0  0  0  0  0  0  0  0  0  0  0  0
    3.3333    1.9096    6.2214 H   0  0  0  0  0  0  0  0  0  0  0  0
    2.2848    2.8287    7.2974 H   0  0  0  0  0  0  0  0  0  0  0  0
    3.8847    2.2430    7.7097 H   0  0  0  0  0  0  0  0  0  0  0  0
    3.0874    0.1722    7.4012 H   0  0  0  0  0  0  0  0  0  0  0  0
    1.8532    2.2186    9.2405 H   0  0  0  0  0  0  0  0  0  0  0  0
    4.5201    1.2472    9.2987 H   0  0  0  0  0  0  0  0  0  0  0  0
    3.7139    1.1611   10.8555 H   0  0  0  0  0  0  0  0  0  0  0  0
    3.3571    3.8116    9.5910 H   0  0  0  0  0  0  0  0  0  0  0  0
    5.3286    4.2646    8.7344 H   0  0  0  0  0  0  0  0  0  0  0  0
    5.9730    2.7014    9.1291 H   0  0  0  0  0  0  0  0  0  0  0  0
    7.5002    4.2920   10.1647 H   0  0  0  0  0  0  0  0  0  0  0  0
    6.8631    5.2665   12.2881 H   0  0  0  0  0  0  0  0  0  0  0  0
    4.2311    5.6861   11.8816 H   0  0  0  0  0  0  0  0  0  0  0  0
    4.7065    4.7110   13.2640 H   0  0  0  0  0  0  0  0  0  0  0  0
    2.8142    3.7926   11.8173 H   0  0  0  0  0  0  0  0  0  0  0  0
    4.0700    2.7038   12.2959 H   0  0  0  0  0  0  0  0  0  0  0  0
    1.3125   -1.9891    5.5826 H   0  0  0  0  0  0  0  0  0  0  0  0
   -0.3688   -1.0229    5.3687 H   0  0  0  0  0  0  0  0  0  0  0  0
   -2.5479   -0.7720    7.0259 H   0  0  0  0  0  0  0  0  0  0  0  0
   -3.0508    0.2879    8.8503 H   0  0  0  0  0  0  0  0  0  0  0  0
   -4.2803   -0.5482    9.7823 H   0  0  0  0  0  0  0  0  0  0  0  0
   -4.5413   -0.0873    6.8408 H   0  0  0  0  0  0  0  0  0  0  0  0
   -5.6710    0.1558    8.1525 H   0  0  0  0  0  0  0  0  0  0  0  0
   -5.9899   -2.0853    8.3842 H   0  0  0  0  0  0  0  0  0  0  0  0
   -5.7650   -2.0701    6.6705 H   0  0  0  0  0  0  0  0  0  0  0  0
   -3.6543   -2.4147    6.6837 H   0  0  0  0  0  0  0  0  0  0  0  0
   -3.8797   -3.7273    7.7080 H   0  0  0  0  0  0  0  0  0  0  0  0
    0.9958   -3.1641    8.5939 H   0  0  0  0  0  0  0  0  0  0  0  0
  1  2  1  0
  2  3  1  0
  3  4  1  0
  4  5  1  0
  5  6  1  0
  6  7  1  0
  7  8  2  0
  8  9  1  0
  9 10  1  0
  2 11  1  0
 11 12  2  0
 12 13  1  0
 13 14  2  0
 14 15  1  0
 15 16  1  0
 16 17  1  0
 17 18  1  0
 18 19  1  0
 19 20  1  0
 15 21  2  0
 10  5  1  0
 21 11  1  0
 20 16  1  0
  1 22  1  0
  1 23  1  0
  1 24  1  0
  2 25  1  0
  3 26  1  0
  4 27  1  0
  4 28  1  0
  5 29  1  0
  6 30  1  0
  6 31  1  0
  7 32  1  0
  8 33  1  0
  9 34  1  0
  9 35  1  0
 10 36  1  0
 10 37  1  0
 12 38  1  0
 13 39  1  0
 14 40  1  0
 17 41  1  0
 17 42  1  0
 18 43  1  0
 18 44  1  0
 19 45  1  0
 19 46  1  0
 20 47  1  0
 20 48  1  0
 21 49  1  0
M  END
>  <Energy>  (13) 
686.20749541317161

>  <compound_id>  (13) 
4602

>  <target_id>  (13) 
1

>  <reference_id>  (13) 
93

>  <inspiration_ids>  (13) 
[93, 95]

>  <energy_score>  (13) 
626.0291438986548

>  <distance_score>  (13) 
9.859119895554292

>  <path>  (13) 
/opt/xchem-fragalysis-2/maxwin/BulkDock/SCRATCH/511018/C4602-P93/C4602-P93.minimised.mol

>  <scratch_subdir>  (13) 
/opt/xchem-fragalysis-2/maxwin/BulkDock/SCRATCH/511018/C4602-P93

>  <fragmenstein_runtime>  (13) 
9.804391622543335

>  <fragmenstein_outcome>  (13) 
too moved

>  <fragmenstein_mode>  (13) 
expansion

>  <fragmenstein_error>  (13) 


$$$$
C4602-P95
     RDKit          3D

 49 51  0  0  0  0  0  0  0  0999 V2000
    2.3671   -4.7607    3.7057 C   0  0  0  0  0  0  0  0  0  0  0  0
    1.2285   -5.7812    3.9852 C   0  0  0  0  0  0  0  0  0  0  0  0
    2.0365   -7.0431    4.0959 N   0  0  0  0  0  0  0  0  0  0  0  0
    2.8189   -7.3073    5.4217 C   0  0  0  0  0  0  0  0  0  0  0  0
    3.9020   -6.4000    6.2050 C   0  0  0  0  0  0  0  0  0  0  0  0
    5.3564   -6.4968    5.6773 C   0  0  0  0  0  0  0  0  0  0  0  0
    6.4117   -5.9486    6.6199 C   0  0  0  0  0  0  0  0  0  0  0  0
    6.1897   -5.6691    7.9125 C   0  0  0  0  0  0  0  0  0  0  0  0
    4.8628   -5.9028    8.5601 C   0  0  0  0  0  0  0  0  0  0  0  0
    3.9237   -6.7815    7.7163 C   0  0  0  0  0  0  0  0  0  0  0  0
   -0.3004   -5.1315    3.6861 C   0  0  0  0  0  0  0  0  0  0  0  0
   -0.0522   -3.3119    3.1265 C   0  0  0  0  0  0  0  0  0  0  0  0
   -1.2968   -1.9772    3.6725 C   0  0  0  0  0  0  0  0  0  0  0  0
   -3.0261   -2.4730    4.2796 C   0  0  0  0  0  0  0  0  0  0  0  0
   -3.5240   -4.3054    4.4684 C   0  0  0  0  0  0  0  0  0  0  0  0
   -4.9537   -4.3977    4.0173 N   0  0  0  0  0  0  0  0  0  0  0  0
   -5.2751   -3.9221    2.6560 C   0  0  0  0  0  0  0  0  0  0  0  0
   -6.6960   -3.3773    2.7584 C   0  0  0  0  0  0  0  0  0  0  0  0
   -6.6973   -2.7165    4.1189 C   0  0  0  0  0  0  0  0  0  0  0  0
   -5.8554   -3.6608    4.9664 C   0  0  0  0  0  0  0  0  0  0  0  0
   -2.1124   -5.6527    4.1395 C   0  0  0  0  0  0  0  0  0  0  0  0
    3.3568   -5.0532    4.0569 H   0  0  0  0  0  0  0  0  0  0  0  0
    2.2019   -3.7592    4.0809 H   0  0  0  0  0  0  0  0  0  0  0  0
    2.4800   -4.6728    2.6164 H   0  0  0  0  0  0  0  0  0  0  0  0
    0.7611   -6.0526    4.9091 H   0  0  0  0  0  0  0  0  0  0  0  0
    1.4193   -7.8418    3.9360 H   0  0  0  0  0  0  0  0  0  0  0  0
    2.0283   -7.5520    6.1441 H   0  0  0  0  0  0  0  0  0  0  0  0
    3.3209   -8.2651    5.2309 H   0  0  0  0  0  0  0  0  0  0  0  0
    3.6033   -5.3505    6.1571 H   0  0  0  0  0  0  0  0  0  0  0  0
    5.4242   -5.9599    4.7244 H   0  0  0  0  0  0  0  0  0  0  0  0
    5.6070   -7.5439    5.4682 H   0  0  0  0  0  0  0  0  0  0  0  0
    7.4014   -5.7816    6.2003 H   0  0  0  0  0  0  0  0  0  0  0  0
    6.9898   -5.2633    8.5264 H   0  0  0  0  0  0  0  0  0  0  0  0
    5.0100   -6.3755    9.5377 H   0  0  0  0  0  0  0  0  0  0  0  0
    4.3826   -4.9353    8.7377 H   0  0  0  0  0  0  0  0  0  0  0  0
    2.9117   -6.7079    8.1328 H   0  0  0  0  0  0  0  0  0  0  0  0
    4.2273   -7.8325    7.8141 H   0  0  0  0  0  0  0  0  0  0  0  0
    0.8901   -2.9589    2.7162 H   0  0  0  0  0  0  0  0  0  0  0  0
   -1.1094   -0.9524    3.3588 H   0  0  0  0  0  0  0  0  0  0  0  0
   -3.7933   -1.7022    4.2994 H   0  0  0  0  0  0  0  0  0  0  0  0
   -5.2186   -4.7438    1.9350 H   0  0  0  0  0  0  0  0  0  0  0  0
   -4.6315   -3.1054    2.3135 H   0  0  0  0  0  0  0  0  0  0  0  0
   -6.9317   -2.6784    1.9506 H   0  0  0  0  0  0  0  0  0  0  0  0
   -7.4217   -4.1923    2.7192 H   0  0  0  0  0  0  0  0  0  0  0  0
   -6.2190   -1.7322    4.0593 H   0  0  0  0  0  0  0  0  0  0  0  0
   -7.7044   -2.5777    4.5226 H   0  0  0  0  0  0  0  0  0  0  0  0
   -6.5149   -4.3890    5.4519 H   0  0  0  0  0  0  0  0  0  0  0  0
   -5.3259   -3.1179    5.7580 H   0  0  0  0  0  0  0  0  0  0  0  0
   -2.2817   -6.7088    3.9427 H   0  0  0  0  0  0  0  0  0  0  0  0
  1  2  1  0
  2  3  1  0
  3  4  1  0
  4  5  1  0
  5  6  1  0
  6  7  1  0
  7  8  2  0
  8  9  1  0
  9 10  1  0
  2 11  1  0
 11 12  2  0
 12 13  1  0
 13 14  2  0
 14 15  1  0
 15 16  1  0
 16 17  1  0
 17 18  1  0
 18 19  1  0
 19 20  1  0
 15 21  2  0
 10  5  1  0
 21 11  1  0
 20 16  1  0
  1 22  1  0
  1 23  1  0
  1 24  1  0
  2 25  1  0
  3 26  1  0
  4 27  1  0
  4 28  1  0
  5 29  1  0
  6 30  1  0
  6 31  1  0
  7 32  1  0
  8 33  1  0
  9 34  1  0
  9 35  1  0
 10 36  1  0
 10 37  1  0
 12 38  1  0
 13 39  1  0
 14 40  1  0
 17 41  1  0
 17 42  1  0
 18 43  1  0
 18 44  1  0
 19 45  1  0
 19 46  1  0
 20 47  1  0
 20 48  1  0
 21 49  1  0
M  END
>  <Energy>  (14) 
594.76541938145101

>  <compound_id>  (14) 
4602

>  <target_id>  (14) 
1

>  <reference_id>  (14) 
95

>  <inspiration_ids>  (14) 
[93, 95]

>  <energy_score>  (14) 
534.5870678669371

>  <distance_score>  (14) 
11.312331114106614

>  <path>  (14) 
/opt/xchem-fragalysis-2/maxwin/BulkDock/SCRATCH/511018/C4602-P95/C4602-P95.minimised.mol

>  <scratch_subdir>  (14) 
/opt/xchem-fragalysis-2/maxwin/BulkDock/SCRATCH/511018/C4602-P95

>  <fragmenstein_runtime>  (14) 
9.328388214111328

>  <fragmenstein_outcome>  (14) 
too moved

>  <fragmenstein_mode>  (14) 
expansion

>  <fragmenstein_error>  (14) 


$$$$
C4605-P93
     RDKit          3D

 45 47  0  0  0  0  0  0  0  0999 V2000
    5.6956    3.7396   10.2206 C   0  0  0  0  0  0  0  0  0  0  0  0
    5.8642    2.5158    9.2224 C   0  0  0  0  0  0  0  0  0  0  0  0
    6.1029    1.0078    9.4349 N   0  0  0  0  0  0  0  0  0  0  0  0
    6.7857   -0.3427   10.6769 C   0  0  0  0  0  0  0  0  0  0  0  0
    7.5532   -0.5380   12.3456 C   0  0  0  0  0  0  0  0  0  0  0  0
    7.0042   -1.5214   13.1597 C   0  0  0  0  0  0  0  0  0  0  0  0
    7.4523   -1.7843   14.4800 C   0  0  0  0  0  0  0  0  0  0  0  0
    8.4915   -1.0756   15.0979 C   0  0  0  0  0  0  0  0  0  0  0  0
    9.1839   -0.1261   14.3943 C   0  0  0  0  0  0  0  0  0  0  0  0
    8.7973    0.0673   13.0495 C   0  0  0  0  0  0  0  0  0  0  0  0
    4.6370    2.7988    8.2345 C   0  0  0  0  0  0  0  0  0  0  0  0
    4.9256    2.9514    6.8731 C   0  0  0  0  0  0  0  0  0  0  0  0
    3.9616    3.3873    5.9731 C   0  0  0  0  0  0  0  0  0  0  0  0
    2.6903    3.7374    6.4145 C   0  0  0  0  0  0  0  0  0  0  0  0
    2.3146    3.6498    7.7621 C   0  0  0  0  0  0  0  0  0  0  0  0
    1.0281    4.0613    8.1618 N   0  0  0  0  0  0  0  0  0  0  0  0
    0.2285    4.8355    7.1894 C   0  0  0  0  0  0  0  0  0  0  0  0
   -1.0009    5.2244    7.9879 C   0  0  0  0  0  0  0  0  0  0  0  0
   -0.3501    5.6725    9.2844 C   0  0  0  0  0  0  0  0  0  0  0  0
    0.8774    4.7539    9.4545 C   0  0  0  0  0  0  0  0  0  0  0  0
    3.2908    3.1071    8.6477 C   0  0  0  0  0  0  0  0  0  0  0  0
    6.5415    3.9901   10.8511 H   0  0  0  0  0  0  0  0  0  0  0  0
    4.8241    3.6210   10.8766 H   0  0  0  0  0  0  0  0  0  0  0  0
    5.5232    4.6618    9.6466 H   0  0  0  0  0  0  0  0  0  0  0  0
    6.7604    2.8105    8.6561 H   0  0  0  0  0  0  0  0  0  0  0  0
    6.3690    0.6656    8.5050 H   0  0  0  0  0  0  0  0  0  0  0  0
    5.8092   -0.6529   11.0118 H   0  0  0  0  0  0  0  0  0  0  0  0
    7.2110   -1.1398   10.1103 H   0  0  0  0  0  0  0  0  0  0  0  0
    6.2581   -2.1599   12.7557 H   0  0  0  0  0  0  0  0  0  0  0  0
    6.9732   -2.5998   14.9897 H   0  0  0  0  0  0  0  0  0  0  0  0
    8.8326   -1.3102   16.0814 H   0  0  0  0  0  0  0  0  0  0  0  0
   10.0585    0.3698   14.7931 H   0  0  0  0  0  0  0  0  0  0  0  0
    9.5060    0.6997   12.5241 H   0  0  0  0  0  0  0  0  0  0  0  0
    5.9181    2.7125    6.4989 H   0  0  0  0  0  0  0  0  0  0  0  0
    4.1999    3.4552    4.9154 H   0  0  0  0  0  0  0  0  0  0  0  0
    2.0023    4.0662    5.6429 H   0  0  0  0  0  0  0  0  0  0  0  0
    0.0047    4.2935    6.2783 H   0  0  0  0  0  0  0  0  0  0  0  0
    0.7689    5.7480    6.8965 H   0  0  0  0  0  0  0  0  0  0  0  0
   -1.6581    4.3668    8.1529 H   0  0  0  0  0  0  0  0  0  0  0  0
   -1.5781    6.0213    7.5113 H   0  0  0  0  0  0  0  0  0  0  0  0
   -1.0255    5.6547   10.1431 H   0  0  0  0  0  0  0  0  0  0  0  0
   -0.0052    6.7097    9.1822 H   0  0  0  0  0  0  0  0  0  0  0  0
    1.7551    5.3659    9.6970 H   0  0  0  0  0  0  0  0  0  0  0  0
    0.7217    4.0526   10.2676 H   0  0  0  0  0  0  0  0  0  0  0  0
    3.0298    2.9707    9.6927 H   0  0  0  0  0  0  0  0  0  0  0  0
  1  2  1  0
  2  3  1  0
  3  4  1  0
  4  5  1  0
  5  6  2  0
  6  7  1  0
  7  8  2  0
  8  9  1  0
  9 10  2  0
  2 11  1  0
 11 12  2  0
 12 13  1  0
 13 14  2  0
 14 15  1  0
 15 16  1  0
 16 17  1  0
 17 18  1  0
 18 19  1  0
 19 20  1  0
 15 21  2  0
 10  5  1  0
 21 11  1  0
 20 16  1  0
  1 22  1  0
  1 23  1  0
  1 24  1  0
  2 25  1  0
  3 26  1  0
  4 27  1  0
  4 28  1  0
  6 29  1  0
  7 30  1  0
  8 31  1  0
  9 32  1  0
 10 33  1  0
 12 34  1  0
 13 35  1  0
 14 36  1  0
 17 37  1  0
 17 38  1  0
 18 39  1  0
 18 40  1  0
 19 41  1  0
 19 42  1  0
 20 43  1  0
 20 44  1  0
 21 45  1  0
M  END
>  <Energy>  (15) 
245.43131039860145

>  <compound_id>  (15) 
4605

>  <target_id>  (15) 
1

>  <reference_id>  (15) 
93

>  <inspiration_ids>  (15) 
[93, 95]

>  <energy_score>  (15) 
181.33987171119372

>  <distance_score>  (15) 
10.022779789787851

>  <path>  (15) 
/opt/xchem-fragalysis-2/maxwin/BulkDock/SCRATCH/511018/C4605-P93/C4605-P93.minimised.mol

>  <scratch_subdir>  (15) 
/opt/xchem-fragalysis-2/maxwin/BulkDock/SCRATCH/511018/C4605-P93

>  <fragmenstein_runtime>  (15) 
8.117501497268677

>  <fragmenstein_outcome>  (15) 
too moved

>  <fragmenstein_mode>  (15) 
expansion

>  <fragmenstein_error>  (15) 


$$$$
C4605-P95
     RDKit          3D

 45 47  0  0  0  0  0  0  0  0999 V2000
    2.2111    1.2701   12.7357 C   0  0  0  0  0  0  0  0  0  0  0  0
    2.2280   -0.0968   11.6805 C   0  0  0  0  0  0  0  0  0  0  0  0
    4.1110   -0.2608   11.0630 N   0  0  0  0  0  0  0  0  0  0  0  0
    5.7368   -0.7714   12.0721 C   0  0  0  0  0  0  0  0  0  0  0  0
    6.3430   -0.2635   13.5206 C   0  0  0  0  0  0  0  0  0  0  0  0
    7.3533   -1.0712   14.0760 C   0  0  0  0  0  0  0  0  0  0  0  0
    8.1678   -0.6605   15.1375 C   0  0  0  0  0  0  0  0  0  0  0  0
    7.9312    0.5523   15.7556 C   0  0  0  0  0  0  0  0  0  0  0  0
    6.8786    1.3377   15.3012 C   0  0  0  0  0  0  0  0  0  0  0  0
    6.1000    0.9431   14.1967 C   0  0  0  0  0  0  0  0  0  0  0  0
    0.3450   -1.0395   11.4322 C   0  0  0  0  0  0  0  0  0  0  0  0
   -1.3745   -0.4737   11.4591 C   0  0  0  0  0  0  0  0  0  0  0  0
   -2.6501   -0.0120    9.8989 C   0  0  0  0  0  0  0  0  0  0  0  0
   -2.7499   -0.3406    8.6701 C   0  0  0  0  0  0  0  0  0  0  0  0
   -1.6925   -1.1855    8.7639 C   0  0  0  0  0  0  0  0  0  0  0  0
   -2.2688   -1.9693    7.3334 N   0  0  0  0  0  0  0  0  0  0  0  0
   -3.2559   -3.0618    7.7356 C   0  0  0  0  0  0  0  0  0  0  0  0
   -4.6867   -2.7296    7.2792 C   0  0  0  0  0  0  0  0  0  0  0  0
   -4.4382   -2.3325    5.8880 C   0  0  0  0  0  0  0  0  0  0  0  0
   -3.3039   -1.3727    6.1686 C   0  0  0  0  0  0  0  0  0  0  0  0
   -0.0086   -1.1462    9.8363 C   0  0  0  0  0  0  0  0  0  0  0  0
    1.8321    2.2002   12.3062 H   0  0  0  0  0  0  0  0  0  0  0  0
    3.2165    1.6061   12.9991 H   0  0  0  0  0  0  0  0  0  0  0  0
    1.5744    1.0617   13.6003 H   0  0  0  0  0  0  0  0  0  0  0  0
    2.3957    0.5936   10.8099 H   0  0  0  0  0  0  0  0  0  0  0  0
    4.3727    0.7003   10.8055 H   0  0  0  0  0  0  0  0  0  0  0  0
    5.7752   -1.8790   12.1158 H   0  0  0  0  0  0  0  0  0  0  0  0
    6.6128   -0.6659   11.3864 H   0  0  0  0  0  0  0  0  0  0  0  0
    7.5859   -2.0246   13.6258 H   0  0  0  0  0  0  0  0  0  0  0  0
    9.0037   -1.2848   15.4339 H   0  0  0  0  0  0  0  0  0  0  0  0
    8.5565    0.8974   16.5726 H   0  0  0  0  0  0  0  0  0  0  0  0
    6.6718    2.2904   15.7849 H   0  0  0  0  0  0  0  0  0  0  0  0
    5.3154    1.6274   13.8843 H   0  0  0  0  0  0  0  0  0  0  0  0
   -1.7179   -0.0663   12.3919 H   0  0  0  0  0  0  0  0  0  0  0  0
   -3.7850    0.1569   10.0978 H   0  0  0  0  0  0  0  0  0  0  0  0
   -3.6678   -0.2372    8.1632 H   0  0  0  0  0  0  0  0  0  0  0  0
   -3.0141   -3.9913    7.2067 H   0  0  0  0  0  0  0  0  0  0  0  0
   -3.1322   -3.2406    8.7683 H   0  0  0  0  0  0  0  0  0  0  0  0
   -5.1284   -1.9066    7.8534 H   0  0  0  0  0  0  0  0  0  0  0  0
   -5.3873   -3.5602    7.2914 H   0  0  0  0  0  0  0  0  0  0  0  0
   -5.2958   -1.8469    5.4127 H   0  0  0  0  0  0  0  0  0  0  0  0
   -4.1256   -3.1704    5.2591 H   0  0  0  0  0  0  0  0  0  0  0  0
   -3.8427   -0.4983    6.4485 H   0  0  0  0  0  0  0  0  0  0  0  0
   -2.8695   -1.2836    5.1688 H   0  0  0  0  0  0  0  0  0  0  0  0
    0.9588   -1.3928    9.3682 H   0  0  0  0  0  0  0  0  0  0  0  0
  1  2  1  0
  2  3  1  0
  3  4  1  0
  4  5  1  0
  5  6  2  0
  6  7  1  0
  7  8  2  0
  8  9  1  0
  9 10  2  0
  2 11  1  0
 11 12  2  0
 12 13  1  0
 13 14  2  0
 14 15  1  0
 15 16  1  0
 16 17  1  0
 17 18  1  0
 18 19  1  0
 19 20  1  0
 15 21  2  0
 10  5  1  0
 21 11  1  0
 20 16  1  0
  1 22  1  0
  1 23  1  0
  1 24  1  0
  2 25  1  0
  3 26  1  0
  4 27  1  0
  4 28  1  0
  6 29  1  0
  7 30  1  0
  8 31  1  0
  9 32  1  0
 10 33  1  0
 12 34  1  0
 13 35  1  0
 14 36  1  0
 17 37  1  0
 17 38  1  0
 18 39  1  0
 18 40  1  0
 19 41  1  0
 19 42  1  0
 20 43  1  0
 20 44  1  0
 21 45  1  0
M  END
>  <Energy>  (16) 
915.69114798942769

>  <compound_id>  (16) 
4605

>  <target_id>  (16) 
1

>  <reference_id>  (16) 
95

>  <inspiration_ids>  (16) 
[93, 95]

>  <energy_score>  (16) 
851.5997093020285

>  <distance_score>  (16) 
7.955874093353233

>  <path>  (16) 
/opt/xchem-fragalysis-2/maxwin/BulkDock/SCRATCH/511018/C4605-P95/C4605-P95.minimised.mol

>  <scratch_subdir>  (16) 
/opt/xchem-fragalysis-2/maxwin/BulkDock/SCRATCH/511018/C4605-P95

>  <fragmenstein_runtime>  (16) 
7.580127954483032

>  <fragmenstein_outcome>  (16) 
too moved

>  <fragmenstein_mode>  (16) 
expansion

>  <fragmenstein_error>  (16) 


$$$$
C4608-P93
     RDKit          3D

 49 52  0  0  0  0  0  0  0  0999 V2000
   -1.6132    1.6950   12.8884 C   0  0  0  0  0  0  0  0  0  0  0  0
   -1.5152   -0.0244   11.8680 C   0  0  0  0  0  0  0  0  0  0  0  0
    0.2369   -0.4180   12.5631 N   0  0  0  0  0  0  0  0  0  0  0  0
    1.1205    0.3705   13.8728 C   0  0  0  0  0  0  0  0  0  0  0  0
    1.7584   -0.3790   15.1100 C   0  0  0  0  0  0  0  0  0  0  0  0
    1.5027   -1.7398   15.4184 C   0  0  0  0  0  0  0  0  0  0  0  0
    2.1685   -2.4366   16.4376 C   0  0  0  0  0  0  0  0  0  0  0  0
    3.1393   -1.8278   17.2232 C   0  0  0  0  0  0  0  0  0  0  0  0
    3.4383   -0.4962   16.9448 C   0  0  0  0  0  0  0  0  0  0  0  0
    4.4039    0.3032   17.5181 N   0  0  0  0  0  0  0  0  0  0  0  0
    4.3911    1.5389   16.9389 C   0  0  0  0  0  0  0  0  0  0  0  0
    3.4013    1.5371   15.9768 C   0  0  0  0  0  0  0  0  0  0  0  0
    2.7695    0.2490   15.9564 C   0  0  0  0  0  0  0  0  0  0  0  0
   -2.2939   -0.0581    9.8156 C   0  0  0  0  0  0  0  0  0  0  0  0
   -2.3191   -1.0957    8.7961 C   0  0  0  0  0  0  0  0  0  0  0  0
   -3.3688   -1.7449    8.0211 C   0  0  0  0  0  0  0  0  0  0  0  0
   -4.6097   -1.2480    7.8828 C   0  0  0  0  0  0  0  0  0  0  0  0
   -4.7163    0.0003    8.3834 C   0  0  0  0  0  0  0  0  0  0  0  0
   -5.8639    0.7753    8.0475 N   0  0  0  0  0  0  0  0  0  0  0  0
   -6.0902    0.9295    6.5824 C   0  0  0  0  0  0  0  0  0  0  0  0
   -7.3696    0.1694    6.2479 C   0  0  0  0  0  0  0  0  0  0  0  0
   -8.1739    0.3218    7.5159 C   0  0  0  0  0  0  0  0  0  0  0  0
   -7.1113    0.1423    8.5924 C   0  0  0  0  0  0  0  0  0  0  0  0
   -3.5676    0.5252    9.2393 C   0  0  0  0  0  0  0  0  0  0  0  0
   -2.5631    1.6890   13.4579 H   0  0  0  0  0  0  0  0  0  0  0  0
   -1.5232    2.7152   12.4945 H   0  0  0  0  0  0  0  0  0  0  0  0
   -0.8136    1.9359   13.5986 H   0  0  0  0  0  0  0  0  0  0  0  0
   -2.1277   -0.7045   12.4323 H   0  0  0  0  0  0  0  0  0  0  0  0
    0.3850   -1.2989   13.0044 H   0  0  0  0  0  0  0  0  0  0  0  0
    1.9509    0.8639   13.3589 H   0  0  0  0  0  0  0  0  0  0  0  0
    0.5310    1.1398   14.3560 H   0  0  0  0  0  0  0  0  0  0  0  0
    0.7939   -2.3203   14.8383 H   0  0  0  0  0  0  0  0  0  0  0  0
    1.9232   -3.4827   16.6113 H   0  0  0  0  0  0  0  0  0  0  0  0
    3.6445   -2.3775   18.0088 H   0  0  0  0  0  0  0  0  0  0  0  0
    5.0159    0.0067   18.2654 H   0  0  0  0  0  0  0  0  0  0  0  0
    5.0737    2.3152   17.2571 H   0  0  0  0  0  0  0  0  0  0  0  0
    3.1561    2.3735   15.3346 H   0  0  0  0  0  0  0  0  0  0  0  0
   -1.4728   -1.5815    8.4514 H   0  0  0  0  0  0  0  0  0  0  0  0
   -3.1572   -2.7069    7.5701 H   0  0  0  0  0  0  0  0  0  0  0  0
   -5.3647   -1.7566    7.3048 H   0  0  0  0  0  0  0  0  0  0  0  0
   -6.2365    1.9987    6.3866 H   0  0  0  0  0  0  0  0  0  0  0  0
   -5.2596    0.5991    5.9533 H   0  0  0  0  0  0  0  0  0  0  0  0
   -7.8781    0.5797    5.3709 H   0  0  0  0  0  0  0  0  0  0  0  0
   -7.1548   -0.8872    6.0534 H   0  0  0  0  0  0  0  0  0  0  0  0
   -8.9831   -0.4089    7.5997 H   0  0  0  0  0  0  0  0  0  0  0  0
   -8.6077    1.3271    7.5741 H   0  0  0  0  0  0  0  0  0  0  0  0
   -6.9948   -0.9275    8.8003 H   0  0  0  0  0  0  0  0  0  0  0  0
   -7.4310    0.6194    9.5187 H   0  0  0  0  0  0  0  0  0  0  0  0
   -3.4744    1.6094    9.0838 H   0  0  0  0  0  0  0  0  0  0  0  0
  1  2  1  0
  2  3  1  0
  3  4  1  0
  4  5  1  0
  5  6  2  0
  6  7  1  0
  7  8  2  0
  8  9  1  0
  9 10  1  0
 10 11  1  0
 11 12  2  0
 12 13  1  0
  2 14  1  0
 14 15  2  0
 15 16  1  0
 16 17  2  0
 17 18  1  0
 18 19  1  0
 19 20  1  0
 20 21  1  0
 21 22  1  0
 22 23  1  0
 18 24  2  0
 13  5  1  0
 24 14  1  0
 13  9  2  0
 23 19  1  0
  1 25  1  0
  1 26  1  0
  1 27  1  0
  2 28  1  0
  3 29  1  0
  4 30  1  0
  4 31  1  0
  6 32  1  0
  7 33  1  0
  8 34  1  0
 10 35  1  0
 11 36  1  0
 12 37  1  0
 15 38  1  0
 16 39  1  0
 17 40  1  0
 20 41  1  0
 20 42  1  0
 21 43  1  0
 21 44  1  0
 22 45  1  0
 22 46  1  0
 23 47  1  0
 23 48  1  0
 24 49  1  0
M  END
>  <Energy>  (17) 
490.29118083676485

>  <compound_id>  (17) 
4608

>  <target_id>  (17) 
1

>  <reference_id>  (17) 
93

>  <inspiration_ids>  (17) 
[93, 95]

>  <energy_score>  (17) 
418.73120337443373

>  <distance_score>  (17) 
9.477392594406885

>  <path>  (17) 
/opt/xchem-fragalysis-2/maxwin/BulkDock/SCRATCH/511018/C4608-P93/C4608-P93.minimised.mol

>  <scratch_subdir>  (17) 
/opt/xchem-fragalysis-2/maxwin/BulkDock/SCRATCH/511018/C4608-P93

>  <fragmenstein_runtime>  (17) 
9.469202280044556

>  <fragmenstein_outcome>  (17) 
too moved

>  <fragmenstein_mode>  (17) 
expansion

>  <fragmenstein_error>  (17) 


$$$$
C4608-P95
     RDKit          3D

 49 52  0  0  0  0  0  0  0  0999 V2000
    1.8834    1.4380   12.9304 C   0  0  0  0  0  0  0  0  0  0  0  0
    0.7398    0.2668   13.4061 C   0  0  0  0  0  0  0  0  0  0  0  0
    0.7766    0.6391   15.0406 N   0  0  0  0  0  0  0  0  0  0  0  0
    1.1369   -0.1422   16.2541 C   0  0  0  0  0  0  0  0  0  0  0  0
    2.5135   -0.1323   17.0500 C   0  0  0  0  0  0  0  0  0  0  0  0
    2.6700   -1.2842   17.8839 C   0  0  0  0  0  0  0  0  0  0  0  0
    3.7940   -1.5382   18.6696 C   0  0  0  0  0  0  0  0  0  0  0  0
    4.8661   -0.6639   18.6675 C   0  0  0  0  0  0  0  0  0  0  0  0
    4.7802    0.4520   17.8412 C   0  0  0  0  0  0  0  0  0  0  0  0
    5.7417    1.4144   17.6241 N   0  0  0  0  0  0  0  0  0  0  0  0
    5.2612    2.3656   16.7770 C   0  0  0  0  0  0  0  0  0  0  0  0
    3.9634    2.0218   16.4620 C   0  0  0  0  0  0  0  0  0  0  0  0
    3.6357    0.7734   17.0824 C   0  0  0  0  0  0  0  0  0  0  0  0
   -0.5136   -0.6344   12.1602 C   0  0  0  0  0  0  0  0  0  0  0  0
   -0.4056   -1.1869   10.8389 C   0  0  0  0  0  0  0  0  0  0  0  0
   -1.5226   -1.1999    9.2168 C   0  0  0  0  0  0  0  0  0  0  0  0
   -2.3707   -0.3464    8.6169 C   0  0  0  0  0  0  0  0  0  0  0  0
   -2.8109    0.0207    9.7972 C   0  0  0  0  0  0  0  0  0  0  0  0
   -4.4931   -0.3233    9.4234 N   0  0  0  0  0  0  0  0  0  0  0  0
   -4.5651   -1.4365    8.2984 C   0  0  0  0  0  0  0  0  0  0  0  0
   -6.0045   -1.4865    7.8350 C   0  0  0  0  0  0  0  0  0  0  0  0
   -6.0950   -0.0486    7.4127 C   0  0  0  0  0  0  0  0  0  0  0  0
   -5.3394    0.6619    8.5570 C   0  0  0  0  0  0  0  0  0  0  0  0
   -1.7853   -0.2035   11.5966 C   0  0  0  0  0  0  0  0  0  0  0  0
    2.4993    1.1105   12.0967 H   0  0  0  0  0  0  0  0  0  0  0  0
    1.3686    2.3751   12.6625 H   0  0  0  0  0  0  0  0  0  0  0  0
    2.5198    1.8296   13.7198 H   0  0  0  0  0  0  0  0  0  0  0  0
   -0.0317    1.0569   13.4970 H   0  0  0  0  0  0  0  0  0  0  0  0
    1.0535    1.6114   15.1606 H   0  0  0  0  0  0  0  0  0  0  0  0
    0.8481   -1.1873   16.0765 H   0  0  0  0  0  0  0  0  0  0  0  0
    0.4267    0.2098   17.0157 H   0  0  0  0  0  0  0  0  0  0  0  0
    1.8632   -2.0177   17.9238 H   0  0  0  0  0  0  0  0  0  0  0  0
    3.8295   -2.4304   19.2907 H   0  0  0  0  0  0  0  0  0  0  0  0
    5.7329   -0.8470   19.2898 H   0  0  0  0  0  0  0  0  0  0  0  0
    6.6550    1.4228   18.0554 H   0  0  0  0  0  0  0  0  0  0  0  0
    5.8629    3.2166   16.4876 H   0  0  0  0  0  0  0  0  0  0  0  0
    3.3158    2.5985   15.8162 H   0  0  0  0  0  0  0  0  0  0  0  0
    0.6079   -1.5544   10.5881 H   0  0  0  0  0  0  0  0  0  0  0  0
   -1.7801   -2.0766    8.6449 H   0  0  0  0  0  0  0  0  0  0  0  0
   -2.6840   -0.3819    7.6216 H   0  0  0  0  0  0  0  0  0  0  0  0
   -4.1265   -1.1537    7.3326 H   0  0  0  0  0  0  0  0  0  0  0  0
   -3.9543   -2.2976    8.4837 H   0  0  0  0  0  0  0  0  0  0  0  0
   -6.1706   -2.1779    7.0048 H   0  0  0  0  0  0  0  0  0  0  0  0
   -6.7312   -1.6691    8.6259 H   0  0  0  0  0  0  0  0  0  0  0  0
   -7.1310    0.2942    7.3148 H   0  0  0  0  0  0  0  0  0  0  0  0
   -5.6116    0.1259    6.4452 H   0  0  0  0  0  0  0  0  0  0  0  0
   -4.7604    1.5032    8.2260 H   0  0  0  0  0  0  0  0  0  0  0  0
   -6.2299    0.9890    9.0969 H   0  0  0  0  0  0  0  0  0  0  0  0
   -2.4959   -0.1693   12.4869 H   0  0  0  0  0  0  0  0  0  0  0  0
  1  2  1  0
  2  3  1  0
  3  4  1  0
  4  5  1  0
  5  6  2  0
  6  7  1  0
  7  8  2  0
  8  9  1  0
  9 10  1  0
 10 11  1  0
 11 12  2  0
 12 13  1  0
  2 14  1  0
 14 15  2  0
 15 16  1  0
 16 17  2  0
 17 18  1  0
 18 19  1  0
 19 20  1  0
 20 21  1  0
 21 22  1  0
 22 23  1  0
 18 24  2  0
 13  5  1  0
 24 14  1  0
 13  9  2  0
 23 19  1  0
  1 25  1  0
  1 26  1  0
  1 27  1  0
  2 28  1  0
  3 29  1  0
  4 30  1  0
  4 31  1  0
  6 32  1  0
  7 33  1  0
  8 34  1  0
 10 35  1  0
 11 36  1  0
 12 37  1  0
 15 38  1  0
 16 39  1  0
 17 40  1  0
 20 41  1  0
 20 42  1  0
 21 43  1  0
 21 44  1  0
 22 45  1  0
 22 46  1  0
 23 47  1  0
 23 48  1  0
 24 49  1  0
M  END
>  <Energy>  (18) 
676.19107083953202

>  <compound_id>  (18) 
4608

>  <target_id>  (18) 
1

>  <reference_id>  (18) 
95

>  <inspiration_ids>  (18) 
[93, 95]

>  <energy_score>  (18) 
604.6310933772047

>  <distance_score>  (18) 
9.22990639049226

>  <path>  (18) 
/opt/xchem-fragalysis-2/maxwin/BulkDock/SCRATCH/511018/C4608-P95/C4608-P95.minimised.mol

>  <scratch_subdir>  (18) 
/opt/xchem-fragalysis-2/maxwin/BulkDock/SCRATCH/511018/C4608-P95

>  <fragmenstein_runtime>  (18) 
10.701152801513672

>  <fragmenstein_outcome>  (18) 
too moved

>  <fragmenstein_mode>  (18) 
expansion

>  <fragmenstein_error>  (18) 


$$$$
C4619-P93
     RDKit          3D

 50 53  0  0  0  0  0  0  0  0999 V2000
    2.1780    0.8000   13.2247 C   0  0  0  0  0  0  0  0  0  0  0  0
    2.5484   -0.2822   11.7740 C   0  0  0  0  0  0  0  0  0  0  0  0
    4.4902   -0.4833   11.4361 N   0  0  0  0  0  0  0  0  0  0  0  0
    6.2388   -0.9754   12.1730 C   0  0  0  0  0  0  0  0  0  0  0  0
    7.2937   -0.9856   13.6367 C   0  0  0  0  0  0  0  0  0  0  0  0
    6.6224   -1.4891   14.7452 C   0  0  0  0  0  0  0  0  0  0  0  0
    6.8541   -0.8340   15.9859 C   0  0  0  0  0  0  0  0  0  0  0  0
    8.0188   -0.1463   16.3319 C   0  0  0  0  0  0  0  0  0  0  0  0
    8.9839   -0.0740   15.3921 C   0  0  0  0  0  0  0  0  0  0  0  0
    8.6162   -0.2982   14.0446 C   0  0  0  0  0  0  0  0  0  0  0  0
    9.7844    0.4581   13.3787 C   0  0  0  0  0  0  0  0  0  0  0  0
   10.9104    0.4094   14.3016 O   0  0  0  0  0  0  0  0  0  0  0  0
   10.3439    0.4817   15.5915 C   0  0  0  0  0  0  0  0  0  0  0  0
    0.7539   -0.9457   11.1202 C   0  0  0  0  0  0  0  0  0  0  0  0
    0.3021   -1.0240    9.9718 C   0  0  0  0  0  0  0  0  0  0  0  0
   -1.4103   -0.5774    9.0582 C   0  0  0  0  0  0  0  0  0  0  0  0
   -2.0076   -1.0441    8.0585 C   0  0  0  0  0  0  0  0  0  0  0  0
   -2.1613   -1.3557    9.2745 C   0  0  0  0  0  0  0  0  0  0  0  0
   -3.8498   -1.6051    8.9851 N   0  0  0  0  0  0  0  0  0  0  0  0
   -4.3112   -2.0010    7.5929 C   0  0  0  0  0  0  0  0  0  0  0  0
   -5.7806   -1.5915    7.4944 C   0  0  0  0  0  0  0  0  0  0  0  0
   -5.8984   -0.4583    8.4889 C   0  0  0  0  0  0  0  0  0  0  0  0
   -4.5057   -0.3261    9.1121 C   0  0  0  0  0  0  0  0  0  0  0  0
   -1.0192   -1.2325   10.9608 C   0  0  0  0  0  0  0  0  0  0  0  0
    1.2608    0.4183   13.6806 H   0  0  0  0  0  0  0  0  0  0  0  0
    2.1517    1.8447   12.9020 H   0  0  0  0  0  0  0  0  0  0  0  0
    2.8724    0.8509   14.0775 H   0  0  0  0  0  0  0  0  0  0  0  0
    2.8145    0.5559   11.0518 H   0  0  0  0  0  0  0  0  0  0  0  0
    4.7476    0.4074   10.9972 H   0  0  0  0  0  0  0  0  0  0  0  0
    6.9192   -0.8093   11.3323 H   0  0  0  0  0  0  0  0  0  0  0  0
    6.2085   -2.0626   12.2539 H   0  0  0  0  0  0  0  0  0  0  0  0
    5.7144   -2.0621   14.6251 H   0  0  0  0  0  0  0  0  0  0  0  0
    6.0286   -0.7741   16.7017 H   0  0  0  0  0  0  0  0  0  0  0  0
    8.1206    0.3194   17.3020 H   0  0  0  0  0  0  0  0  0  0  0  0
   10.2069    0.1138   12.4589 H   0  0  0  0  0  0  0  0  0  0  0  0
    9.5980    1.5285   13.2822 H   0  0  0  0  0  0  0  0  0  0  0  0
   10.9467   -0.1267   16.2662 H   0  0  0  0  0  0  0  0  0  0  0  0
   10.3164    1.5237   15.9248 H   0  0  0  0  0  0  0  0  0  0  0  0
    0.9990   -1.7433    9.4505 H   0  0  0  0  0  0  0  0  0  0  0  0
   -1.9603    0.4697    9.1724 H   0  0  0  0  0  0  0  0  0  0  0  0
   -1.8800   -1.8747    7.4486 H   0  0  0  0  0  0  0  0  0  0  0  0
   -4.1364   -3.0534    7.3599 H   0  0  0  0  0  0  0  0  0  0  0  0
   -3.8467   -1.3599    6.8558 H   0  0  0  0  0  0  0  0  0  0  0  0
   -6.0402   -1.2622    6.4831 H   0  0  0  0  0  0  0  0  0  0  0  0
   -6.4670   -2.4059    7.7241 H   0  0  0  0  0  0  0  0  0  0  0  0
   -6.1956    0.4780    8.0042 H   0  0  0  0  0  0  0  0  0  0  0  0
   -6.6652   -0.6764    9.2373 H   0  0  0  0  0  0  0  0  0  0  0  0
   -4.4910   -0.2361   10.1672 H   0  0  0  0  0  0  0  0  0  0  0  0
   -3.9921    0.5122    8.6480 H   0  0  0  0  0  0  0  0  0  0  0  0
   -1.4874   -0.9308   11.9620 H   0  0  0  0  0  0  0  0  0  0  0  0
  1  2  1  0
  2  3  1  0
  3  4  1  0
  4  5  1  0
  5  6  2  0
  6  7  1  0
  7  8  2  0
  8  9  1  0
  9 10  2  0
 10 11  1  0
 11 12  1  0
 12 13  1  0
  2 14  1  0
 14 15  2  0
 15 16  1  0
 16 17  2  0
 17 18  1  0
 18 19  1  0
 19 20  1  0
 20 21  1  0
 21 22  1  0
 22 23  1  0
 18 24  2  0
 10  5  1  0
 24 14  1  0
 13  9  1  0
 23 19  1  0
  1 25  1  0
  1 26  1  0
  1 27  1  0
  2 28  1  0
  3 29  1  0
  4 30  1  0
  4 31  1  0
  6 32  1  0
  7 33  1  0
  8 34  1  0
 11 35  1  0
 11 36  1  0
 13 37  1  0
 13 38  1  0
 15 39  1  0
 16 40  1  0
 17 41  1  0
 20 42  1  0
 20 43  1  0
 21 44  1  0
 21 45  1  0
 22 46  1  0
 22 47  1  0
 23 48  1  0
 23 49  1  0
 24 50  1  0
M  END
>  <Energy>  (19) 
1209.5790665609131

>  <compound_id>  (19) 
4619

>  <target_id>  (19) 
1

>  <reference_id>  (19) 
93

>  <inspiration_ids>  (19) 
[93, 95]

>  <energy_score>  (19) 
1121.8662762687145

>  <distance_score>  (19) 
7.343137590376165

>  <path>  (19) 
/opt/xchem-fragalysis-2/maxwin/BulkDock/SCRATCH/511018/C4619-P93/C4619-P93.minimised.mol

>  <scratch_subdir>  (19) 
/opt/xchem-fragalysis-2/maxwin/BulkDock/SCRATCH/511018/C4619-P93

>  <fragmenstein_runtime>  (19) 
7.416274547576904

>  <fragmenstein_outcome>  (19) 
too moved

>  <fragmenstein_mode>  (19) 
expansion

>  <fragmenstein_error>  (19) 


$$$$
C4619-P95
     RDKit          3D

 50 53  0  0  0  0  0  0  0  0999 V2000
    6.6125    1.3674    6.5851 C   0  0  0  0  0  0  0  0  0  0  0  0
    5.5128    0.3199    7.3220 C   0  0  0  0  0  0  0  0  0  0  0  0
    7.1761   -0.7890    8.1852 N   0  0  0  0  0  0  0  0  0  0  0  0
    8.2662   -2.4372    9.0241 C   0  0  0  0  0  0  0  0  0  0  0  0
   10.3019   -2.8352    9.9523 C   0  0  0  0  0  0  0  0  0  0  0  0
   11.1807   -4.0596   10.8622 C   0  0  0  0  0  0  0  0  0  0  0  0
   12.2743   -3.8153   12.2430 C   0  0  0  0  0  0  0  0  0  0  0  0
   13.1044   -2.9395   12.8804 C   0  0  0  0  0  0  0  0  0  0  0  0
   12.3678   -1.8699   12.7386 C   0  0  0  0  0  0  0  0  0  0  0  0
   11.1560   -1.8786   11.5833 C   0  0  0  0  0  0  0  0  0  0  0  0
   10.9961   -0.0979   12.2862 C   0  0  0  0  0  0  0  0  0  0  0  0
   12.2766    0.3616   12.7424 O   0  0  0  0  0  0  0  0  0  0  0  0
   12.6987   -0.6816   13.5647 C   0  0  0  0  0  0  0  0  0  0  0  0
    3.2864   -0.0319    6.9442 C   0  0  0  0  0  0  0  0  0  0  0  0
    2.4384   -1.6560    6.6638 C   0  0  0  0  0  0  0  0  0  0  0  0
    1.0960   -2.0392    5.2959 C   0  0  0  0  0  0  0  0  0  0  0  0
   -0.1179   -1.5412    5.2546 C   0  0  0  0  0  0  0  0  0  0  0  0
    0.0352   -1.4926    6.5778 C   0  0  0  0  0  0  0  0  0  0  0  0
   -1.7273   -1.5177    7.1443 N   0  0  0  0  0  0  0  0  0  0  0  0
   -2.9939   -2.5692    6.9846 C   0  0  0  0  0  0  0  0  0  0  0  0
   -4.2134   -1.6845    6.8672 C   0  0  0  0  0  0  0  0  0  0  0  0
   -3.9833   -0.8142    8.0532 C   0  0  0  0  0  0  0  0  0  0  0  0
   -2.4486   -0.6394    8.1321 C   0  0  0  0  0  0  0  0  0  0  0  0
    1.6491   -0.6039    7.5476 C   0  0  0  0  0  0  0  0  0  0  0  0
    7.3424    1.7073    7.3280 H   0  0  0  0  0  0  0  0  0  0  0  0
    6.1028    2.2507    6.1804 H   0  0  0  0  0  0  0  0  0  0  0  0
    7.1478    0.8453    5.7838 H   0  0  0  0  0  0  0  0  0  0  0  0
    5.2666    1.2719    7.9881 H   0  0  0  0  0  0  0  0  0  0  0  0
    7.4683   -0.0884    8.8961 H   0  0  0  0  0  0  0  0  0  0  0  0
    8.5434   -2.8132    8.0030 H   0  0  0  0  0  0  0  0  0  0  0  0
    7.5764   -3.2506    9.3266 H   0  0  0  0  0  0  0  0  0  0  0  0
   10.6991   -4.1396   11.8099 H   0  0  0  0  0  0  0  0  0  0  0  0
   11.6797   -4.1365   13.1985 H   0  0  0  0  0  0  0  0  0  0  0  0
   13.7551   -3.1393   13.7160 H   0  0  0  0  0  0  0  0  0  0  0  0
   10.3758   -0.0459   13.1981 H   0  0  0  0  0  0  0  0  0  0  0  0
   10.6785    0.6693   11.5854 H   0  0  0  0  0  0  0  0  0  0  0  0
   12.1658   -0.6854   14.5226 H   0  0  0  0  0  0  0  0  0  0  0  0
   13.7726   -0.5737   13.7461 H   0  0  0  0  0  0  0  0  0  0  0  0
    2.0722   -1.9406    5.4306 H   0  0  0  0  0  0  0  0  0  0  0  0
    1.3689   -2.6409    4.3089 H   0  0  0  0  0  0  0  0  0  0  0  0
   -0.8527   -1.4565    4.4789 H   0  0  0  0  0  0  0  0  0  0  0  0
   -3.0727   -3.1159    7.9276 H   0  0  0  0  0  0  0  0  0  0  0  0
   -3.1154   -3.3392    6.2176 H   0  0  0  0  0  0  0  0  0  0  0  0
   -4.2005   -1.1217    5.9289 H   0  0  0  0  0  0  0  0  0  0  0  0
   -5.1506   -2.2436    6.9354 H   0  0  0  0  0  0  0  0  0  0  0  0
   -4.5345    0.1280    8.0052 H   0  0  0  0  0  0  0  0  0  0  0  0
   -4.3525   -1.2921    8.9569 H   0  0  0  0  0  0  0  0  0  0  0  0
   -2.3204    0.4200    8.0775 H   0  0  0  0  0  0  0  0  0  0  0  0
   -2.1221   -1.0423    9.0503 H   0  0  0  0  0  0  0  0  0  0  0  0
    1.5219   -0.2517    8.6468 H   0  0  0  0  0  0  0  0  0  0  0  0
  1  2  1  0
  2  3  1  0
  3  4  1  0
  4  5  1  0
  5  6  2  0
  6  7  1  0
  7  8  2  0
  8  9  1  0
  9 10  2  0
 10 11  1  0
 11 12  1  0
 12 13  1  0
  2 14  1  0
 14 15  2  0
 15 16  1  0
 16 17  2  0
 17 18  1  0
 18 19  1  0
 19 20  1  0
 20 21  1  0
 21 22  1  0
 22 23  1  0
 18 24  2  0
 10  5  1  0
 24 14  1  0
 13  9  1  0
 23 19  1  0
  1 25  1  0
  1 26  1  0
  1 27  1  0
  2 28  1  0
  3 29  1  0
  4 30  1  0
  4 31  1  0
  6 32  1  0
  7 33  1  0
  8 34  1  0
 11 35  1  0
 11 36  1  0
 13 37  1  0
 13 38  1  0
 15 39  1  0
 16 40  1  0
 17 41  1  0
 20 42  1  0
 20 43  1  0
 21 44  1  0
 21 45  1  0
 22 46  1  0
 22 47  1  0
 23 48  1  0
 23 49  1  0
 24 50  1  0
M  END
>  <Energy>  (20) 
2419.3569889580831

>  <compound_id>  (20) 
4619

>  <target_id>  (20) 
1

>  <reference_id>  (20) 
95

>  <inspiration_ids>  (20) 
[93, 95]

>  <energy_score>  (20) 
2331.6441986658483

>  <distance_score>  (20) 
7.5080363095976725

>  <path>  (20) 
/opt/xchem-fragalysis-2/maxwin/BulkDock/SCRATCH/511018/C4619-P95/C4619-P95.minimised.mol

>  <scratch_subdir>  (20) 
/opt/xchem-fragalysis-2/maxwin/BulkDock/SCRATCH/511018/C4619-P95

>  <fragmenstein_runtime>  (20) 
6.577622175216675

>  <fragmenstein_outcome>  (20) 
too moved

>  <fragmenstein_mode>  (20) 
expansion

>  <fragmenstein_error>  (20) 


$$$$
C4625-P93
     RDKit          3D

 45 47  0  0  0  0  0  0  0  0999 V2000
   -6.0371   -2.1217    7.2594 C   0  0  0  0  0  0  0  0  0  0  0  0
   -5.4804   -1.3210    8.3694 N   0  0  0  0  0  0  0  0  0  0  0  0
   -4.5937   -0.1758    8.0170 C   0  0  0  0  0  0  0  0  0  0  0  0
   -5.3078    0.4851    6.6954 C   0  0  0  0  0  0  0  0  0  0  0  0
   -6.1919    1.6525    6.9663 N   0  0  0  0  0  0  0  0  0  0  0  0
   -7.4666    1.3034    7.6156 C   0  0  0  0  0  0  0  0  0  0  0  0
   -8.4396    0.8932    6.5170 C   0  0  0  0  0  0  0  0  0  0  0  0
   -7.8325    1.4407    5.2353 C   0  0  0  0  0  0  0  0  0  0  0  0
   -6.6320    2.2594    5.6957 C   0  0  0  0  0  0  0  0  0  0  0  0
   -3.0375   -0.4951    8.2779 C   0  0  0  0  0  0  0  0  0  0  0  0
   -2.6323   -1.6011    7.7425 C   0  0  0  0  0  0  0  0  0  0  0  0
   -1.1938   -1.8733    8.3338 C   0  0  0  0  0  0  0  0  0  0  0  0
    0.5930   -1.9539    9.3562 C   0  0  0  0  0  0  0  0  0  0  0  0
    2.2573   -2.6470   10.1445 C   0  0  0  0  0  0  0  0  0  0  0  0
    2.9597   -3.7004    9.7247 C   0  0  0  0  0  0  0  0  0  0  0  0
    3.6779   -4.5745   10.6778 C   0  0  0  0  0  0  0  0  0  0  0  0
    3.3436   -4.7662   11.9235 C   0  0  0  0  0  0  0  0  0  0  0  0
    3.1727   -3.5488   12.3193 C   0  0  0  0  0  0  0  0  0  0  0  0
    2.9707   -2.5109   11.2891 C   0  0  0  0  0  0  0  0  0  0  0  0
   -0.0651   -1.0251   10.1069 C   0  0  0  0  0  0  0  0  0  0  0  0
   -1.8348   -0.3922    9.4049 C   0  0  0  0  0  0  0  0  0  0  0  0
   -5.2897   -2.3358    6.5003 H   0  0  0  0  0  0  0  0  0  0  0  0
   -6.3874   -3.1046    7.5653 H   0  0  0  0  0  0  0  0  0  0  0  0
   -6.9289   -1.6683    6.8232 H   0  0  0  0  0  0  0  0  0  0  0  0
   -6.2635   -0.9648    8.9116 H   0  0  0  0  0  0  0  0  0  0  0  0
   -4.6685    0.6174    8.7270 H   0  0  0  0  0  0  0  0  0  0  0  0
   -5.9013   -0.2260    6.1292 H   0  0  0  0  0  0  0  0  0  0  0  0
   -4.6071    0.7269    5.9018 H   0  0  0  0  0  0  0  0  0  0  0  0
   -7.8510    2.2126    8.0966 H   0  0  0  0  0  0  0  0  0  0  0  0
   -7.3987    0.5643    8.4126 H   0  0  0  0  0  0  0  0  0  0  0  0
   -8.5500   -0.1929    6.4522 H   0  0  0  0  0  0  0  0  0  0  0  0
   -9.4330    1.3173    6.6979 H   0  0  0  0  0  0  0  0  0  0  0  0
   -8.5468    2.0503    4.6732 H   0  0  0  0  0  0  0  0  0  0  0  0
   -7.5147    0.6151    4.5879 H   0  0  0  0  0  0  0  0  0  0  0  0
   -6.9471    3.2918    5.8950 H   0  0  0  0  0  0  0  0  0  0  0  0
   -5.8452    2.3153    4.9353 H   0  0  0  0  0  0  0  0  0  0  0  0
   -3.2658   -2.4106    7.4090 H   0  0  0  0  0  0  0  0  0  0  0  0
   -0.9628   -1.4555    7.1899 H   0  0  0  0  0  0  0  0  0  0  0  0
    3.0278   -3.7008    8.6297 H   0  0  0  0  0  0  0  0  0  0  0  0
    4.5257   -5.1450   10.3680 H   0  0  0  0  0  0  0  0  0  0  0  0
    3.4798   -5.6577   12.4734 H   0  0  0  0  0  0  0  0  0  0  0  0
    2.9657   -3.4034   13.3635 H   0  0  0  0  0  0  0  0  0  0  0  0
    2.5102   -1.4487   11.4932 H   0  0  0  0  0  0  0  0  0  0  0  0
    0.3356   -0.7894   11.0742 H   0  0  0  0  0  0  0  0  0  0  0  0
   -2.2874   -1.3566    9.5007 H   0  0  0  0  0  0  0  0  0  0  0  0
  1  2  1  0
  2  3  1  0
  3  4  1  0
  4  5  1  0
  5  6  1  0
  6  7  1  0
  7  8  1  0
  8  9  1  0
  3 10  1  0
 10 11  2  0
 11 12  1  0
 12 13  2  0
 13 14  1  0
 14 15  2  0
 15 16  1  0
 16 17  2  0
 17 18  1  0
 18 19  2  0
 13 20  1  0
 20 21  2  0
  9  5  1  0
 21 10  1  0
 19 14  1  0
  1 22  1  0
  1 23  1  0
  1 24  1  0
  2 25  1  0
  3 26  1  0
  4 27  1  0
  4 28  1  0
  6 29  1  0
  6 30  1  0
  7 31  1  0
  7 32  1  0
  8 33  1  0
  8 34  1  0
  9 35  1  0
  9 36  1  0
 11 37  1  0
 12 38  1  0
 15 39  1  0
 16 40  1  0
 17 41  1  0
 18 42  1  0
 19 43  1  0
 20 44  1  0
 21 45  1  0
M  END
>  <Energy>  (21) 
910.38095026896542

>  <compound_id>  (21) 
4625

>  <target_id>  (21) 
1

>  <reference_id>  (21) 
93

>  <inspiration_ids>  (21) 
[93, 95]

>  <energy_score>  (21) 
790.2616775404664

>  <distance_score>  (21) 
8.379411950274854

>  <path>  (21) 
/opt/xchem-fragalysis-2/maxwin/BulkDock/SCRATCH/511018/C4625-P93/C4625-P93.minimised.mol

>  <scratch_subdir>  (21) 
/opt/xchem-fragalysis-2/maxwin/BulkDock/SCRATCH/511018/C4625-P93

>  <fragmenstein_runtime>  (21) 
27.62944483757019

>  <fragmenstein_outcome>  (21) 
too moved

>  <fragmenstein_mode>  (21) 
expansion

>  <fragmenstein_error>  (21) 


$$$$
C4625-P95
     RDKit          3D

 45 47  0  0  0  0  0  0  0  0999 V2000
   -3.7387    0.5825    8.9025 C   0  0  0  0  0  0  0  0  0  0  0  0
   -2.4791    0.0552    8.4745 N   0  0  0  0  0  0  0  0  0  0  0  0
   -1.7704   -1.1671    9.2230 C   0  0  0  0  0  0  0  0  0  0  0  0
   -3.2277   -2.0928    8.5192 C   0  0  0  0  0  0  0  0  0  0  0  0
   -3.8496   -1.8451    7.0914 N   0  0  0  0  0  0  0  0  0  0  0  0
   -5.2091   -1.2044    7.0707 C   0  0  0  0  0  0  0  0  0  0  0  0
   -6.1251   -1.9148    6.0996 C   0  0  0  0  0  0  0  0  0  0  0  0
   -5.6331   -3.3097    6.2324 C   0  0  0  0  0  0  0  0  0  0  0  0
   -4.1224   -3.1050    6.3718 C   0  0  0  0  0  0  0  0  0  0  0  0
   -0.1187   -1.1565   10.5429 C   0  0  0  0  0  0  0  0  0  0  0  0
    1.3305   -1.4611   10.1448 C   0  0  0  0  0  0  0  0  0  0  0  0
    2.9979   -1.9295   10.6742 C   0  0  0  0  0  0  0  0  0  0  0  0
    3.8314   -0.9219   11.2118 C   0  0  0  0  0  0  0  0  0  0  0  0
    5.6802   -1.0452   12.1151 C   0  0  0  0  0  0  0  0  0  0  0  0
    6.2084   -1.8049   13.4881 C   0  0  0  0  0  0  0  0  0  0  0  0
    7.3798   -1.7552   14.3201 C   0  0  0  0  0  0  0  0  0  0  0  0
    8.2103   -0.7401   14.0993 C   0  0  0  0  0  0  0  0  0  0  0  0
    7.9476   -0.1628   12.8389 C   0  0  0  0  0  0  0  0  0  0  0  0
    6.9395   -0.6421   11.7928 C   0  0  0  0  0  0  0  0  0  0  0  0
    2.2626   -0.1340   11.8121 C   0  0  0  0  0  0  0  0  0  0  0  0
    0.5376   -0.8043   11.9775 C   0  0  0  0  0  0  0  0  0  0  0  0
   -3.5846    1.6546    8.9336 H   0  0  0  0  0  0  0  0  0  0  0  0
   -4.5610    0.5720    8.2136 H   0  0  0  0  0  0  0  0  0  0  0  0
   -4.1482    0.1275    9.7956 H   0  0  0  0  0  0  0  0  0  0  0  0
   -2.6682   -0.2941    7.5230 H   0  0  0  0  0  0  0  0  0  0  0  0
   -1.4003   -1.6215    8.3974 H   0  0  0  0  0  0  0  0  0  0  0  0
   -4.0530   -1.8022    9.1504 H   0  0  0  0  0  0  0  0  0  0  0  0
   -3.0183   -3.1466    8.5628 H   0  0  0  0  0  0  0  0  0  0  0  0
   -5.1573   -0.1912    6.6748 H   0  0  0  0  0  0  0  0  0  0  0  0
   -5.6916   -1.2131    8.0545 H   0  0  0  0  0  0  0  0  0  0  0  0
   -7.1830   -1.8067    6.3554 H   0  0  0  0  0  0  0  0  0  0  0  0
   -5.9742   -1.5454    5.0780 H   0  0  0  0  0  0  0  0  0  0  0  0
   -5.9168   -3.9013    5.3581 H   0  0  0  0  0  0  0  0  0  0  0  0
   -6.0721   -3.7634    7.1211 H   0  0  0  0  0  0  0  0  0  0  0  0
   -3.7595   -2.9698    5.3493 H   0  0  0  0  0  0  0  0  0  0  0  0
   -3.5977   -3.9628    6.7935 H   0  0  0  0  0  0  0  0  0  0  0  0
    1.3687   -2.0758   11.0511 H   0  0  0  0  0  0  0  0  0  0  0  0
    3.4125   -2.7495   10.1087 H   0  0  0  0  0  0  0  0  0  0  0  0
    5.5437   -2.4823   14.0365 H   0  0  0  0  0  0  0  0  0  0  0  0
    7.5558   -2.4360   15.1254 H   0  0  0  0  0  0  0  0  0  0  0  0
    9.0707   -0.4842   14.6982 H   0  0  0  0  0  0  0  0  0  0  0  0
    8.7182    0.5609   12.5749 H   0  0  0  0  0  0  0  0  0  0  0  0
    7.1218   -0.4131   10.7589 H   0  0  0  0  0  0  0  0  0  0  0  0
    2.3855    0.8078   12.3971 H   0  0  0  0  0  0  0  0  0  0  0  0
   -0.0307   -0.4420   12.8078 H   0  0  0  0  0  0  0  0  0  0  0  0
  1  2  1  0
  2  3  1  0
  3  4  1  0
  4  5  1  0
  5  6  1  0
  6  7  1  0
  7  8  1  0
  8  9  1  0
  3 10  1  0
 10 11  2  0
 11 12  1  0
 12 13  2  0
 13 14  1  0
 14 15  2  0
 15 16  1  0
 16 17  2  0
 17 18  1  0
 18 19  2  0
 13 20  1  0
 20 21  2  0
  9  5  1  0
 21 10  1  0
 19 14  1  0
  1 22  1  0
  1 23  1  0
  1 24  1  0
  2 25  1  0
  3 26  1  0
  4 27  1  0
  4 28  1  0
  6 29  1  0
  6 30  1  0
  7 31  1  0
  7 32  1  0
  8 33  1  0
  8 34  1  0
  9 35  1  0
  9 36  1  0
 11 37  1  0
 12 38  1  0
 15 39  1  0
 16 40  1  0
 17 41  1  0
 18 42  1  0
 19 43  1  0
 20 44  1  0
 21 45  1  0
M  END
>  <Energy>  (22) 
964.46429724416544

>  <compound_id>  (22) 
4625

>  <target_id>  (22) 
1

>  <reference_id>  (22) 
95

>  <inspiration_ids>  (22) 
[93, 95]

>  <energy_score>  (22) 
844.3450245156752

>  <distance_score>  (22) 
6.576578311541669

>  <path>  (22) 
/opt/xchem-fragalysis-2/maxwin/BulkDock/SCRATCH/511018/C4625-P95/C4625-P95.minimised.mol

>  <scratch_subdir>  (22) 
/opt/xchem-fragalysis-2/maxwin/BulkDock/SCRATCH/511018/C4625-P95

>  <fragmenstein_runtime>  (22) 
15.36344838142395

>  <fragmenstein_outcome>  (22) 
too moved

>  <fragmenstein_mode>  (22) 
expansion

>  <fragmenstein_error>  (22) 


$$$$
C4636-P93
     RDKit          3D

 34 35  0  0  0  0  0  0  0  0999 V2000
   -2.6069   -1.2012    8.5956 C   0  0  0  0  0  0  0  0  0  0  0  0
   -1.3803   -0.8118    9.3872 N   0  0  0  0  0  0  0  0  0  0  0  0
    0.4594   -1.2236   10.1824 C   0  0  0  0  0  0  0  0  0  0  0  0
    2.0140   -1.0457   11.3972 C   0  0  0  0  0  0  0  0  0  0  0  0
    3.7035   -2.1177   11.4860 C   0  0  0  0  0  0  0  0  0  0  0  0
    4.8819   -0.7708   11.4931 C   0  0  0  0  0  0  0  0  0  0  0  0
    6.6424   -1.7782   12.3294 S   0  0  0  0  0  0  0  0  0  0  0  0
    5.7035   -3.2537   12.7052 C   0  0  0  0  0  0  0  0  0  0  0  0
    6.5554   -4.1559   13.6272 C   0  0  0  0  0  0  0  0  0  0  0  0
    7.8946   -3.6451   14.3908 C   0  0  0  0  0  0  0  0  0  0  0  0
    8.2392   -2.2005   14.8510 C   0  0  0  0  0  0  0  0  0  0  0  0
    9.7699   -2.1073   15.0469 C   0  0  0  0  0  0  0  0  0  0  0  0
   10.3119   -3.4216   14.4988 C   0  0  0  0  0  0  0  0  0  0  0  0
    9.1853   -4.1658   13.8647 N   0  0  0  0  0  0  0  0  0  0  0  0
    4.3425   -3.3483   12.3568 N   0  0  0  0  0  0  0  0  0  0  0  0
   -2.8669   -2.2563    8.5804 H   0  0  0  0  0  0  0  0  0  0  0  0
   -2.5124   -0.8955    7.5597 H   0  0  0  0  0  0  0  0  0  0  0  0
   -3.4733   -0.6151    8.9280 H   0  0  0  0  0  0  0  0  0  0  0  0
   -0.9656   -1.1622    8.5303 H   0  0  0  0  0  0  0  0  0  0  0  0
    0.0264   -0.8697   11.0877 H   0  0  0  0  0  0  0  0  0  0  0  0
    1.1097   -0.5002    9.6943 H   0  0  0  0  0  0  0  0  0  0  0  0
    2.6332   -0.0900   11.3482 H   0  0  0  0  0  0  0  0  0  0  0  0
    1.5549   -0.8229   12.4133 H   0  0  0  0  0  0  0  0  0  0  0  0
    5.4890   -0.3551   12.2767 H   0  0  0  0  0  0  0  0  0  0  0  0
    5.8618   -4.4968   14.4096 H   0  0  0  0  0  0  0  0  0  0  0  0
    6.8133   -5.0542   13.0508 H   0  0  0  0  0  0  0  0  0  0  0  0
    7.7474   -4.1788   15.3323 H   0  0  0  0  0  0  0  0  0  0  0  0
    8.0184   -1.3895   14.1810 H   0  0  0  0  0  0  0  0  0  0  0  0
    7.6609   -1.9205   15.7188 H   0  0  0  0  0  0  0  0  0  0  0  0
   10.0837   -1.9298   16.0685 H   0  0  0  0  0  0  0  0  0  0  0  0
   10.1956   -1.2273   14.5505 H   0  0  0  0  0  0  0  0  0  0  0  0
   10.7728   -3.9886   15.3118 H   0  0  0  0  0  0  0  0  0  0  0  0
   11.1145   -3.2632   13.7705 H   0  0  0  0  0  0  0  0  0  0  0  0
    9.2788   -5.1399   14.1902 H   0  0  0  0  0  0  0  0  0  0  0  0
  1  2  1  0
  2  3  1  0
  3  4  1  0
  4  5  1  0
  5  6  2  0
  6  7  1  0
  7  8  1  0
  8  9  1  0
  9 10  1  0
 10 11  1  0
 11 12  1  0
 12 13  1  0
 13 14  1  0
  8 15  2  0
 15  5  1  0
 14 10  1  0
  1 16  1  0
  1 17  1  0
  1 18  1  0
  2 19  1  0
  3 20  1  0
  3 21  1  0
  4 22  1  0
  4 23  1  0
  6 24  1  0
  9 25  1  0
  9 26  1  0
 10 27  1  0
 11 28  1  0
 11 29  1  0
 12 30  1  0
 12 31  1  0
 13 32  1  0
 13 33  1  0
 14 34  1  0
M  END
>  <Energy>  (23) 
590.44569543612226

>  <compound_id>  (23) 
4636

>  <target_id>  (23) 
1

>  <reference_id>  (23) 
93

>  <inspiration_ids>  (23) 
[93, 95]

>  <energy_score>  (23) 
510.77204045154974

>  <distance_score>  (23) 
7.249285587273432

>  <path>  (23) 
/opt/xchem-fragalysis-2/maxwin/BulkDock/SCRATCH/511018/C4636-P93/C4636-P93.minimised.mol

>  <scratch_subdir>  (23) 
/opt/xchem-fragalysis-2/maxwin/BulkDock/SCRATCH/511018/C4636-P93

>  <fragmenstein_runtime>  (23) 
4.205686807632446

>  <fragmenstein_outcome>  (23) 
too moved

>  <fragmenstein_mode>  (23) 
expansion

>  <fragmenstein_error>  (23) 


$$$$
C4636-P95
     RDKit          3D

 34 35  0  0  0  0  0  0  0  0999 V2000
    0.6388   -0.8456   12.8544 C   0  0  0  0  0  0  0  0  0  0  0  0
    1.7289    0.1497   12.5613 N   0  0  0  0  0  0  0  0  0  0  0  0
    2.6168   -0.0233   11.3480 C   0  0  0  0  0  0  0  0  0  0  0  0
    4.3930   -0.0286   11.0373 C   0  0  0  0  0  0  0  0  0  0  0  0
    5.9063   -0.9010   12.0553 C   0  0  0  0  0  0  0  0  0  0  0  0
    7.1816   -0.5503   12.4327 C   0  0  0  0  0  0  0  0  0  0  0  0
    7.4205   -1.2905   14.0957 S   0  0  0  0  0  0  0  0  0  0  0  0
    7.2523   -2.7089   13.1875 C   0  0  0  0  0  0  0  0  0  0  0  0
    8.3067   -3.8095   13.6046 C   0  0  0  0  0  0  0  0  0  0  0  0
    9.9264   -3.4113   13.7904 C   0  0  0  0  0  0  0  0  0  0  0  0
   10.4397   -2.2014   14.6158 C   0  0  0  0  0  0  0  0  0  0  0  0
   11.9096   -2.4896   14.8624 C   0  0  0  0  0  0  0  0  0  0  0  0
   11.9166   -3.9772   15.0627 C   0  0  0  0  0  0  0  0  0  0  0  0
   10.8695   -4.4888   14.1626 N   0  0  0  0  0  0  0  0  0  0  0  0
    6.2239   -2.4943   12.2911 N   0  0  0  0  0  0  0  0  0  0  0  0
    0.1340   -0.5420   13.7781 H   0  0  0  0  0  0  0  0  0  0  0  0
    1.0351   -1.8483   13.0073 H   0  0  0  0  0  0  0  0  0  0  0  0
   -0.1358   -0.9699   12.0924 H   0  0  0  0  0  0  0  0  0  0  0  0
    1.6609    1.1040   12.9197 H   0  0  0  0  0  0  0  0  0  0  0  0
    2.2300   -1.0083   10.9646 H   0  0  0  0  0  0  0  0  0  0  0  0
    2.5223    0.8758   10.7197 H   0  0  0  0  0  0  0  0  0  0  0  0
    4.1982    1.0710   11.4774 H   0  0  0  0  0  0  0  0  0  0  0  0
    4.6346    0.3661   10.0513 H   0  0  0  0  0  0  0  0  0  0  0  0
    7.8924    0.2252   12.2924 H   0  0  0  0  0  0  0  0  0  0  0  0
    7.9532   -4.2256   14.5546 H   0  0  0  0  0  0  0  0  0  0  0  0
    8.2510   -4.6120   12.8589 H   0  0  0  0  0  0  0  0  0  0  0  0
   10.3090   -3.2909   12.7850 H   0  0  0  0  0  0  0  0  0  0  0  0
   10.3904   -1.2253   14.1349 H   0  0  0  0  0  0  0  0  0  0  0  0
    9.9255   -2.0740   15.5585 H   0  0  0  0  0  0  0  0  0  0  0  0
   12.3010   -1.9441   15.7259 H   0  0  0  0  0  0  0  0  0  0  0  0
   12.5006   -2.2153   13.9801 H   0  0  0  0  0  0  0  0  0  0  0  0
   11.6741   -4.2115   16.1051 H   0  0  0  0  0  0  0  0  0  0  0  0
   12.8919   -4.4184   14.8439 H   0  0  0  0  0  0  0  0  0  0  0  0
   10.3580   -5.2132   14.6820 H   0  0  0  0  0  0  0  0  0  0  0  0
  1  2  1  0
  2  3  1  0
  3  4  1  0
  4  5  1  0
  5  6  2  0
  6  7  1  0
  7  8  1  0
  8  9  1  0
  9 10  1  0
 10 11  1  0
 11 12  1  0
 12 13  1  0
 13 14  1  0
  8 15  2  0
 15  5  1  0
 14 10  1  0
  1 16  1  0
  1 17  1  0
  1 18  1  0
  2 19  1  0
  3 20  1  0
  3 21  1  0
  4 22  1  0
  4 23  1  0
  6 24  1  0
  9 25  1  0
  9 26  1  0
 10 27  1  0
 11 28  1  0
 11 29  1  0
 12 30  1  0
 12 31  1  0
 13 32  1  0
 13 33  1  0
 14 34  1  0
M  END
>  <Energy>  (24) 
282.7198439930649

>  <compound_id>  (24) 
4636

>  <target_id>  (24) 
1

>  <reference_id>  (24) 
95

>  <inspiration_ids>  (24) 
[93, 95]

>  <energy_score>  (24) 
203.04618900849528

>  <distance_score>  (24) 
8.061869660583948

>  <path>  (24) 
/opt/xchem-fragalysis-2/maxwin/BulkDock/SCRATCH/511018/C4636-P95/C4636-P95.minimised.mol

>  <scratch_subdir>  (24) 
/opt/xchem-fragalysis-2/maxwin/BulkDock/SCRATCH/511018/C4636-P95

>  <fragmenstein_runtime>  (24) 
5.048484563827515

>  <fragmenstein_outcome>  (24) 
too moved

>  <fragmenstein_mode>  (24) 
expansion

>  <fragmenstein_error>  (24) 


$$$$
C4637-P93
     RDKit          3D

 48 49  0  0  0  0  0  0  0  0999 V2000
   13.2973    1.7045   16.4661 C   0  0  0  0  0  0  0  0  0  0  0  0
   12.8143    1.6256   15.0180 C   0  0  0  0  0  0  0  0  0  0  0  0
   11.4401    1.0969   14.8826 N   0  0  0  0  0  0  0  0  0  0  0  0
   10.3676    2.0293   15.2020 C   0  0  0  0  0  0  0  0  0  0  0  0
   11.1787   -0.2770   14.8993 C   0  0  0  0  0  0  0  0  0  0  0  0
   12.2419   -1.1380   15.2972 C   0  0  0  0  0  0  0  0  0  0  0  0
   12.1017   -2.4994   15.4606 C   0  0  0  0  0  0  0  0  0  0  0  0
   10.8580   -3.0355   15.2661 C   0  0  0  0  0  0  0  0  0  0  0  0
    9.7580   -2.2363   14.9179 C   0  0  0  0  0  0  0  0  0  0  0  0
    9.9218   -0.8966   14.5610 C   0  0  0  0  0  0  0  0  0  0  0  0
    8.8398   -0.2630   13.4782 C   0  0  0  0  0  0  0  0  0  0  0  0
    7.5154   -0.4341   12.2978 N   0  0  0  0  0  0  0  0  0  0  0  0
    5.8151   -0.5434   12.4733 C   0  0  0  0  0  0  0  0  0  0  0  0
    5.5339   -0.6130   13.5593 O   0  0  0  0  0  0  0  0  0  0  0  0
    4.0367   -0.3485   11.2705 C   0  0  0  0  0  0  0  0  0  0  0  0
    1.9153   -0.9524   10.9620 C   0  0  0  0  0  0  0  0  0  0  0  0
   -0.0083   -1.0865   10.0421 C   0  0  0  0  0  0  0  0  0  0  0  0
   -1.5361   -1.4494    8.5448 C   0  0  0  0  0  0  0  0  0  0  0  0
   -2.9677   -0.7904    8.1494 C   0  0  0  0  0  0  0  0  0  0  0  0
   -2.6632    0.4126    8.8296 C   0  0  0  0  0  0  0  0  0  0  0  0
   -1.7771   -0.5138    9.4667 N   0  0  0  0  0  0  0  0  0  0  0  0
   14.3247    2.0820   16.4922 H   0  0  0  0  0  0  0  0  0  0  0  0
   13.2817    0.7447   16.9858 H   0  0  0  0  0  0  0  0  0  0  0  0
   12.6785    2.3960   17.0471 H   0  0  0  0  0  0  0  0  0  0  0  0
   13.5183    1.0572   14.3982 H   0  0  0  0  0  0  0  0  0  0  0  0
   12.8336    2.6396   14.5971 H   0  0  0  0  0  0  0  0  0  0  0  0
   10.7077    2.8049   15.8971 H   0  0  0  0  0  0  0  0  0  0  0  0
    9.5080    1.5497   15.6808 H   0  0  0  0  0  0  0  0  0  0  0  0
   10.0463    2.5403   14.2905 H   0  0  0  0  0  0  0  0  0  0  0  0
   13.2436   -0.7657   15.4751 H   0  0  0  0  0  0  0  0  0  0  0  0
   12.9461   -3.1235   15.7321 H   0  0  0  0  0  0  0  0  0  0  0  0
   10.7495   -4.1061   15.3522 H   0  0  0  0  0  0  0  0  0  0  0  0
    8.7967   -2.7007   14.7010 H   0  0  0  0  0  0  0  0  0  0  0  0
    8.2283    0.0690   14.3063 H   0  0  0  0  0  0  0  0  0  0  0  0
    9.3912    0.5713   13.0305 H   0  0  0  0  0  0  0  0  0  0  0  0
    7.6995   -0.2903   11.3224 H   0  0  0  0  0  0  0  0  0  0  0  0
    4.4247    0.2029   10.3937 H   0  0  0  0  0  0  0  0  0  0  0  0
    3.6431    0.7001   11.5523 H   0  0  0  0  0  0  0  0  0  0  0  0
    2.0312   -0.2313   10.0910 H   0  0  0  0  0  0  0  0  0  0  0  0
    2.0635   -2.0007   10.5860 H   0  0  0  0  0  0  0  0  0  0  0  0
    0.5151   -0.2235    9.8101 H   0  0  0  0  0  0  0  0  0  0  0  0
   -1.2522   -1.4360    7.4684 H   0  0  0  0  0  0  0  0  0  0  0  0
   -2.1335   -2.3850    8.6283 H   0  0  0  0  0  0  0  0  0  0  0  0
   -3.8226   -1.3412    8.5799 H   0  0  0  0  0  0  0  0  0  0  0  0
   -3.1828   -0.7379    7.0866 H   0  0  0  0  0  0  0  0  0  0  0  0
   -2.2007    1.2952    8.4569 H   0  0  0  0  0  0  0  0  0  0  0  0
   -3.6074    0.6807    9.2873 H   0  0  0  0  0  0  0  0  0  0  0  0
   -2.2067   -0.5511   10.3633 H   0  0  0  0  0  0  0  0  0  0  0  0
  1  2  1  0
  2  3  1  0
  3  4  1  0
  3  5  1  0
  5  6  2  0
  6  7  1  0
  7  8  2  0
  8  9  1  0
  9 10  2  0
 10 11  1  0
 11 12  1  0
 12 13  1  0
 13 14  2  0
 13 15  1  0
 15 16  1  0
 16 17  1  0
 17 18  1  0
 18 19  1  0
 19 20  1  0
 20 21  1  0
 10  5  1  0
 21 17  1  0
  1 22  1  0
  1 23  1  0
  1 24  1  0
  2 25  1  0
  2 26  1  0
  4 27  1  0
  4 28  1  0
  4 29  1  0
  6 30  1  0
  7 31  1  0
  8 32  1  0
  9 33  1  0
 11 34  1  0
 11 35  1  0
 12 36  1  0
 15 37  1  0
 15 38  1  0
 16 39  1  0
 16 40  1  0
 17 41  1  0
 18 42  1  0
 18 43  1  0
 19 44  1  0
 19 45  1  0
 20 46  1  0
 20 47  1  0
 21 48  1  0
M  END
>  <Energy>  (25) 
1131.5112333082604

>  <compound_id>  (25) 
4637

>  <target_id>  (25) 
1

>  <reference_id>  (25) 
93

>  <inspiration_ids>  (25) 
[93, 95]

>  <energy_score>  (25) 
1098.5633446205436

>  <distance_score>  (25) 
6.252187601301207

>  <path>  (25) 
/opt/xchem-fragalysis-2/maxwin/BulkDock/SCRATCH/511018/C4637-P93/C4637-P93.minimised.mol

>  <scratch_subdir>  (25) 
/opt/xchem-fragalysis-2/maxwin/BulkDock/SCRATCH/511018/C4637-P93

>  <fragmenstein_runtime>  (25) 
9.276047229766846

>  <fragmenstein_outcome>  (25) 
too moved

>  <fragmenstein_mode>  (25) 
expansion

>  <fragmenstein_error>  (25) 


$$$$
C4637-P95
     RDKit          3D

 48 49  0  0  0  0  0  0  0  0999 V2000
   11.4105    2.5820   14.7689 C   0  0  0  0  0  0  0  0  0  0  0  0
   10.2592    1.7379   14.2480 C   0  0  0  0  0  0  0  0  0  0  0  0
    9.6915    0.8883   15.3084 N   0  0  0  0  0  0  0  0  0  0  0  0
    8.5106    1.3910   15.9838 C   0  0  0  0  0  0  0  0  0  0  0  0
    9.8973   -0.4769   15.0820 C   0  0  0  0  0  0  0  0  0  0  0  0
   11.2947   -0.8316   15.1260 C   0  0  0  0  0  0  0  0  0  0  0  0
   11.7713   -2.1156   15.0061 C   0  0  0  0  0  0  0  0  0  0  0  0
   10.8314   -3.0896   14.8765 C   0  0  0  0  0  0  0  0  0  0  0  0
    9.4550   -2.7468   14.8313 C   0  0  0  0  0  0  0  0  0  0  0  0
    8.9078   -1.4789   14.8428 C   0  0  0  0  0  0  0  0  0  0  0  0
    7.3894   -1.2477   14.6217 C   0  0  0  0  0  0  0  0  0  0  0  0
    6.1663   -1.8194   13.8294 N   0  0  0  0  0  0  0  0  0  0  0  0
    5.7950   -1.8294   12.1440 C   0  0  0  0  0  0  0  0  0  0  0  0
    6.5895   -1.4262   11.3683 O   0  0  0  0  0  0  0  0  0  0  0  0
    3.8322   -2.3979   11.4209 C   0  0  0  0  0  0  0  0  0  0  0  0
    1.8983   -1.5776   10.8880 C   0  0  0  0  0  0  0  0  0  0  0  0
    0.1606   -1.2326    9.6688 C   0  0  0  0  0  0  0  0  0  0  0  0
   -1.6090   -1.6811    8.4763 C   0  0  0  0  0  0  0  0  0  0  0  0
   -3.0864   -1.0730    8.0216 C   0  0  0  0  0  0  0  0  0  0  0  0
   -2.7831   -0.0094    8.8780 C   0  0  0  0  0  0  0  0  0  0  0  0
   -1.7151   -1.0959    9.2757 N   0  0  0  0  0  0  0  0  0  0  0  0
   12.2939    1.9859   14.9968 H   0  0  0  0  0  0  0  0  0  0  0  0
   11.1197    3.1373   15.6653 H   0  0  0  0  0  0  0  0  0  0  0  0
   11.7064    3.3117   14.0076 H   0  0  0  0  0  0  0  0  0  0  0  0
   10.5921    1.1621   13.3738 H   0  0  0  0  0  0  0  0  0  0  0  0
    9.4780    2.4098   13.8689 H   0  0  0  0  0  0  0  0  0  0  0  0
    8.2092    0.7340   16.8062 H   0  0  0  0  0  0  0  0  0  0  0  0
    7.6754    1.5219   15.2936 H   0  0  0  0  0  0  0  0  0  0  0  0
    8.7267    2.3704   16.4247 H   0  0  0  0  0  0  0  0  0  0  0  0
   12.0400   -0.0597   15.2855 H   0  0  0  0  0  0  0  0  0  0  0  0
   12.8296   -2.3424   15.0508 H   0  0  0  0  0  0  0  0  0  0  0  0
   11.1421   -4.1300   14.8374 H   0  0  0  0  0  0  0  0  0  0  0  0
    8.7677   -3.5693   14.8659 H   0  0  0  0  0  0  0  0  0  0  0  0
    7.4848   -0.3405   14.0134 H   0  0  0  0  0  0  0  0  0  0  0  0
    6.9673   -0.9136   15.5710 H   0  0  0  0  0  0  0  0  0  0  0  0
    5.4106   -2.2757   14.3222 H   0  0  0  0  0  0  0  0  0  0  0  0
    3.9712   -3.2786   10.7901 H   0  0  0  0  0  0  0  0  0  0  0  0
    3.5375   -3.0674   12.2790 H   0  0  0  0  0  0  0  0  0  0  0  0
    1.3290   -1.3475   11.7999 H   0  0  0  0  0  0  0  0  0  0  0  0
    2.3279   -0.5774   11.0524 H   0  0  0  0  0  0  0  0  0  0  0  0
    0.6613   -1.9308    8.9691 H   0  0  0  0  0  0  0  0  0  0  0  0
   -1.4547   -1.4926    7.2938 H   0  0  0  0  0  0  0  0  0  0  0  0
   -2.2326   -2.6829    8.5521 H   0  0  0  0  0  0  0  0  0  0  0  0
   -3.2137   -0.8959    6.9535 H   0  0  0  0  0  0  0  0  0  0  0  0
   -3.9295   -1.6959    8.3486 H   0  0  0  0  0  0  0  0  0  0  0  0
   -2.5309    0.8869    8.3485 H   0  0  0  0  0  0  0  0  0  0  0  0
   -3.6895    0.0995    9.4693 H   0  0  0  0  0  0  0  0  0  0  0  0
   -1.8618   -1.2217   10.2747 H   0  0  0  0  0  0  0  0  0  0  0  0
  1  2  1  0
  2  3  1  0
  3  4  1  0
  3  5  1  0
  5  6  2  0
  6  7  1  0
  7  8  2  0
  8  9  1  0
  9 10  2  0
 10 11  1  0
 11 12  1  0
 12 13  1  0
 13 14  2  0
 13 15  1  0
 15 16  1  0
 16 17  1  0
 17 18  1  0
 18 19  1  0
 19 20  1  0
 20 21  1  0
 10  5  1  0
 21 17  1  0
  1 22  1  0
  1 23  1  0
  1 24  1  0
  2 25  1  0
  2 26  1  0
  4 27  1  0
  4 28  1  0
  4 29  1  0
  6 30  1  0
  7 31  1  0
  8 32  1  0
  9 33  1  0
 11 34  1  0
 11 35  1  0
 12 36  1  0
 15 37  1  0
 15 38  1  0
 16 39  1  0
 16 40  1  0
 17 41  1  0
 18 42  1  0
 18 43  1  0
 19 44  1  0
 19 45  1  0
 20 46  1  0
 20 47  1  0
 21 48  1  0
M  END
>  <Energy>  (26) 
1056.9536076133122

>  <compound_id>  (26) 
4637

>  <target_id>  (26) 
1

>  <reference_id>  (26) 
95

>  <inspiration_ids>  (26) 
[93, 95]

>  <energy_score>  (26) 
1024.0057189255979

>  <distance_score>  (26) 
6.796709138631534

>  <path>  (26) 
/opt/xchem-fragalysis-2/maxwin/BulkDock/SCRATCH/511018/C4637-P95/C4637-P95.minimised.mol

>  <scratch_subdir>  (26) 
/opt/xchem-fragalysis-2/maxwin/BulkDock/SCRATCH/511018/C4637-P95

>  <fragmenstein_runtime>  (26) 
11.387611150741577

>  <fragmenstein_outcome>  (26) 
too moved

>  <fragmenstein_mode>  (26) 
expansion

>  <fragmenstein_error>  (26) 


$$$$
C4639-P93
     RDKit          3D

 34 35  0  0  0  0  0  0  0  0999 V2000
    3.0192   -3.6126    8.1154 C   0  0  0  0  0  0  0  0  0  0  0  0
    1.7162   -3.9675    8.3273 N   0  0  0  0  0  0  0  0  0  0  0  0
    1.3439   -5.1837    8.9017 C   0  0  0  0  0  0  0  0  0  0  0  0
   -0.2730   -6.0459    7.8412 C   0  0  0  0  0  0  0  0  0  0  0  0
   -2.1261   -5.4330    6.9219 C   0  0  0  0  0  0  0  0  0  0  0  0
   -2.1871   -5.9273    5.2678 C   0  0  0  0  0  0  0  0  0  0  0  0
   -3.3709   -5.0370    4.5484 C   0  0  0  0  0  0  0  0  0  0  0  0
   -4.0834   -4.0711    5.9944 C   0  0  0  0  0  0  0  0  0  0  0  0
   -3.0697   -4.1435    7.0422 N   0  0  0  0  0  0  0  0  0  0  0  0
    2.5737   -4.9415   10.5682 C   0  0  0  0  0  0  0  0  0  0  0  0
    2.5626   -6.1770   11.7230 C   0  0  0  0  0  0  0  0  0  0  0  0
    2.4504   -6.0066   13.0762 C   0  0  0  0  0  0  0  0  0  0  0  0
    2.6574   -4.7220   13.4484 C   0  0  0  0  0  0  0  0  0  0  0  0
    3.1681   -3.7777   12.6157 N   0  0  0  0  0  0  0  0  0  0  0  0
    3.0535   -3.8592   11.2385 C   0  0  0  0  0  0  0  0  0  0  0  0
    2.9599   -2.7119    7.5222 H   0  0  0  0  0  0  0  0  0  0  0  0
    3.5059   -3.4622    9.0308 H   0  0  0  0  0  0  0  0  0  0  0  0
    3.6816   -4.2552    7.5904 H   0  0  0  0  0  0  0  0  0  0  0  0
    1.0932   -3.1842    8.2977 H   0  0  0  0  0  0  0  0  0  0  0  0
    0.4493   -5.0227    9.3367 H   0  0  0  0  0  0  0  0  0  0  0  0
    0.0850   -6.8124    7.1480 H   0  0  0  0  0  0  0  0  0  0  0  0
   -0.6182   -6.7740    8.6185 H   0  0  0  0  0  0  0  0  0  0  0  0
   -3.0377   -5.6371    7.5744 H   0  0  0  0  0  0  0  0  0  0  0  0
   -1.2841   -5.6781    4.6743 H   0  0  0  0  0  0  0  0  0  0  0  0
   -2.0892   -7.0114    5.1460 H   0  0  0  0  0  0  0  0  0  0  0  0
   -4.1573   -5.3790    3.8479 H   0  0  0  0  0  0  0  0  0  0  0  0
   -2.6909   -4.7469    3.7573 H   0  0  0  0  0  0  0  0  0  0  0  0
   -5.0791   -4.3250    6.4056 H   0  0  0  0  0  0  0  0  0  0  0  0
   -4.4454   -3.0796    5.8149 H   0  0  0  0  0  0  0  0  0  0  0  0
   -3.4195   -4.0119    7.9855 H   0  0  0  0  0  0  0  0  0  0  0  0
    2.2516   -7.1804   11.3758 H   0  0  0  0  0  0  0  0  0  0  0  0
    2.1841   -6.7961   13.7614 H   0  0  0  0  0  0  0  0  0  0  0  0
    2.5439   -4.4568   14.4897 H   0  0  0  0  0  0  0  0  0  0  0  0
    3.1398   -2.8955   10.8090 H   0  0  0  0  0  0  0  0  0  0  0  0
  1  2  1  0
  2  3  1  0
  3  4  1  0
  4  5  1  0
  5  6  1  0
  6  7  1  0
  7  8  1  0
  8  9  1  0
  3 10  1  0
 10 11  2  0
 11 12  1  0
 12 13  2  0
 13 14  1  0
 14 15  2  0
  9  5  1  0
 15 10  1  0
  1 16  1  0
  1 17  1  0
  1 18  1  0
  2 19  1  0
  3 20  1  0
  4 21  1  0
  4 22  1  0
  5 23  1  0
  6 24  1  0
  6 25  1  0
  7 26  1  0
  7 27  1  0
  8 28  1  0
  8 29  1  0
  9 30  1  0
 11 31  1  0
 12 32  1  0
 13 33  1  0
 15 34  1  0
M  END
>  <Energy>  (27) 
581.05723176991251

>  <compound_id>  (27) 
4639

>  <target_id>  (27) 
1

>  <reference_id>  (27) 
93

>  <inspiration_ids>  (27) 
[93, 95]

>  <energy_score>  (27) 
524.6324287315379

>  <distance_score>  (27) 
10.882917663520345

>  <path>  (27) 
/opt/xchem-fragalysis-2/maxwin/BulkDock/SCRATCH/511018/C4639-P93/C4639-P93.minimised.mol

>  <scratch_subdir>  (27) 
/opt/xchem-fragalysis-2/maxwin/BulkDock/SCRATCH/511018/C4639-P93

>  <fragmenstein_runtime>  (27) 
5.963711977005005

>  <fragmenstein_outcome>  (27) 
too moved

>  <fragmenstein_mode>  (27) 
expansion

>  <fragmenstein_error>  (27) 


$$$$
C4639-P95
     RDKit          3D

 34 35  0  0  0  0  0  0  0  0999 V2000
    6.9595   -0.8780   11.2664 C   0  0  0  0  0  0  0  0  0  0  0  0
    5.6829   -0.9408   11.9613 N   0  0  0  0  0  0  0  0  0  0  0  0
    4.3110   -2.3109   11.7039 C   0  0  0  0  0  0  0  0  0  0  0  0
    2.2582   -1.7957   10.9292 C   0  0  0  0  0  0  0  0  0  0  0  0
    0.4035   -1.3700    9.7376 C   0  0  0  0  0  0  0  0  0  0  0  0
   -1.4587   -1.6855    8.5800 C   0  0  0  0  0  0  0  0  0  0  0  0
   -2.9947   -1.1466    8.1232 C   0  0  0  0  0  0  0  0  0  0  0  0
   -2.6777   -0.0944    8.9634 C   0  0  0  0  0  0  0  0  0  0  0  0
   -1.5375   -1.1594    9.3816 N   0  0  0  0  0  0  0  0  0  0  0  0
    5.8132   -2.4187   13.2019 C   0  0  0  0  0  0  0  0  0  0  0  0
    7.2942   -2.0700   13.4615 C   0  0  0  0  0  0  0  0  0  0  0  0
    8.3943   -1.7140   14.4313 C   0  0  0  0  0  0  0  0  0  0  0  0
    8.0150   -0.9895   15.4152 C   0  0  0  0  0  0  0  0  0  0  0  0
    6.7652   -1.2354   15.5064 N   0  0  0  0  0  0  0  0  0  0  0  0
    5.7917   -2.1476   14.5210 C   0  0  0  0  0  0  0  0  0  0  0  0
    7.6295   -0.2876   11.8832 H   0  0  0  0  0  0  0  0  0  0  0  0
    7.3086   -1.8563   11.0189 H   0  0  0  0  0  0  0  0  0  0  0  0
    6.9023   -0.3771   10.3090 H   0  0  0  0  0  0  0  0  0  0  0  0
    5.2522   -0.0809   11.6072 H   0  0  0  0  0  0  0  0  0  0  0  0
    4.5881   -3.3189   11.3663 H   0  0  0  0  0  0  0  0  0  0  0  0
    2.3271   -0.7371   11.1971 H   0  0  0  0  0  0  0  0  0  0  0  0
    2.8022   -2.1322   10.0458 H   0  0  0  0  0  0  0  0  0  0  0  0
    1.0331   -0.5789    9.2844 H   0  0  0  0  0  0  0  0  0  0  0  0
   -2.1446   -2.6711    8.6142 H   0  0  0  0  0  0  0  0  0  0  0  0
   -1.3996   -1.4667    7.3487 H   0  0  0  0  0  0  0  0  0  0  0  0
   -3.1467   -0.9548    7.0593 H   0  0  0  0  0  0  0  0  0  0  0  0
   -3.8212   -1.7744    8.4709 H   0  0  0  0  0  0  0  0  0  0  0  0
   -3.5536    0.0736    9.5902 H   0  0  0  0  0  0  0  0  0  0  0  0
   -2.3679    0.7510    8.4178 H   0  0  0  0  0  0  0  0  0  0  0  0
   -1.7288   -1.2468   10.4173 H   0  0  0  0  0  0  0  0  0  0  0  0
    7.8558   -2.1749   12.6080 H   0  0  0  0  0  0  0  0  0  0  0  0
    9.4495   -1.8256   14.2384 H   0  0  0  0  0  0  0  0  0  0  0  0
    8.5695   -0.4115   16.1194 H   0  0  0  0  0  0  0  0  0  0  0  0
    4.9483   -2.4786   15.1035 H   0  0  0  0  0  0  0  0  0  0  0  0
  1  2  1  0
  2  3  1  0
  3  4  1  0
  4  5  1  0
  5  6  1  0
  6  7  1  0
  7  8  1  0
  8  9  1  0
  3 10  1  0
 10 11  2  0
 11 12  1  0
 12 13  2  0
 13 14  1  0
 14 15  2  0
  9  5  1  0
 15 10  1  0
  1 16  1  0
  1 17  1  0
  1 18  1  0
  2 19  1  0
  3 20  1  0
  4 21  1  0
  4 22  1  0
  5 23  1  0
  6 24  1  0
  6 25  1  0
  7 26  1  0
  7 27  1  0
  8 28  1  0
  8 29  1  0
  9 30  1  0
 11 31  1  0
 12 32  1  0
 13 33  1  0
 15 34  1  0
M  END
>  <Energy>  (28) 
1541.2259879489261

>  <compound_id>  (28) 
4639

>  <target_id>  (28) 
1

>  <reference_id>  (28) 
95

>  <inspiration_ids>  (28) 
[93, 95]

>  <energy_score>  (28) 
1484.801184910555

>  <distance_score>  (28) 
7.79713531692485

>  <path>  (28) 
/opt/xchem-fragalysis-2/maxwin/BulkDock/SCRATCH/511018/C4639-P95/C4639-P95.minimised.mol

>  <scratch_subdir>  (28) 
/opt/xchem-fragalysis-2/maxwin/BulkDock/SCRATCH/511018/C4639-P95

>  <fragmenstein_runtime>  (28) 
6.533342599868774

>  <fragmenstein_outcome>  (28) 
too moved

>  <fragmenstein_mode>  (28) 
expansion

>  <fragmenstein_error>  (28) 


$$$$
C4644-P93
     RDKit          3D

 46 48  0  0  0  0  0  0  0  0999 V2000
   12.3343    1.8132   15.2050 C   0  0  0  0  0  0  0  0  0  0  0  0
   11.7703    0.3992   15.2251 C   0  0  0  0  0  0  0  0  0  0  0  0
   10.3713    0.4067   14.7691 N   0  0  0  0  0  0  0  0  0  0  0  0
    9.7609   -0.9236   14.9180 C   0  0  0  0  0  0  0  0  0  0  0  0
    8.2487   -0.9714   14.4662 C   0  0  0  0  0  0  0  0  0  0  0  0
    7.7829   -0.5435   12.9694 C   0  0  0  0  0  0  0  0  0  0  0  0
    6.8685   -1.1299   11.6898 C   0  0  0  0  0  0  0  0  0  0  0  0
    5.4696   -1.3702   12.1949 C   0  0  0  0  0  0  0  0  0  0  0  0
    3.5736   -2.0995   11.4626 C   0  0  0  0  0  0  0  0  0  0  0  0
    2.1131   -2.1825   10.4653 N   0  0  0  0  0  0  0  0  0  0  0  0
    0.5064   -1.1400   10.2859 C   0  0  0  0  0  0  0  0  0  0  0  0
   -1.4424   -0.8840    9.3778 C   0  0  0  0  0  0  0  0  0  0  0  0
   -2.4112   -1.7888    8.3923 C   0  0  0  0  0  0  0  0  0  0  0  0
   -3.6650   -1.1017    7.9165 C   0  0  0  0  0  0  0  0  0  0  0  0
   -3.9478   -0.0891    8.9464 C   0  0  0  0  0  0  0  0  0  0  0  0
   -2.7139    0.3727    9.6161 N   0  0  0  0  0  0  0  0  0  0  0  0
    0.8772   -0.8164   11.7234 N   0  0  0  0  0  0  0  0  0  0  0  0
    2.5660   -0.5336   11.6408 O   0  0  0  0  0  0  0  0  0  0  0  0
    6.1968   -2.2523   13.7954 C   0  0  0  0  0  0  0  0  0  0  0  0
    7.5799   -2.3076   14.5371 C   0  0  0  0  0  0  0  0  0  0  0  0
   12.3105    2.2343   14.1943 H   0  0  0  0  0  0  0  0  0  0  0  0
   13.3746    1.8090   15.5453 H   0  0  0  0  0  0  0  0  0  0  0  0
   11.7644    2.4741   15.8667 H   0  0  0  0  0  0  0  0  0  0  0  0
   11.8396    0.0039   16.2430 H   0  0  0  0  0  0  0  0  0  0  0  0
   12.3743   -0.2436   14.5742 H   0  0  0  0  0  0  0  0  0  0  0  0
   10.3826    0.6240   13.7732 H   0  0  0  0  0  0  0  0  0  0  0  0
   10.3963   -1.7124   14.5056 H   0  0  0  0  0  0  0  0  0  0  0  0
    9.7523   -1.1522   15.9837 H   0  0  0  0  0  0  0  0  0  0  0  0
    7.8349   -0.4614   15.3229 H   0  0  0  0  0  0  0  0  0  0  0  0
    7.9241   -1.5558   12.8028 H   0  0  0  0  0  0  0  0  0  0  0  0
    8.5537    0.1294   12.6586 H   0  0  0  0  0  0  0  0  0  0  0  0
    7.2768   -2.0673   11.3362 H   0  0  0  0  0  0  0  0  0  0  0  0
    6.9004   -0.5184   10.8024 H   0  0  0  0  0  0  0  0  0  0  0  0
    5.4374   -0.3532   12.4556 H   0  0  0  0  0  0  0  0  0  0  0  0
   -1.4786   -0.2623    8.4964 H   0  0  0  0  0  0  0  0  0  0  0  0
   -1.8610   -1.8876    7.4940 H   0  0  0  0  0  0  0  0  0  0  0  0
   -2.8080   -2.7214    8.7432 H   0  0  0  0  0  0  0  0  0  0  0  0
   -3.5106   -0.6620    6.9379 H   0  0  0  0  0  0  0  0  0  0  0  0
   -4.4988   -1.7987    7.7812 H   0  0  0  0  0  0  0  0  0  0  0  0
   -4.5103    0.7310    8.4942 H   0  0  0  0  0  0  0  0  0  0  0  0
   -4.5962   -0.5443    9.6809 H   0  0  0  0  0  0  0  0  0  0  0  0
   -2.3375    1.2106    9.2029 H   0  0  0  0  0  0  0  0  0  0  0  0
    5.9670   -1.4031   14.3891 H   0  0  0  0  0  0  0  0  0  0  0  0
    5.5252   -2.9520   14.2685 H   0  0  0  0  0  0  0  0  0  0  0  0
    8.2511   -3.0603   14.2022 H   0  0  0  0  0  0  0  0  0  0  0  0
    7.4432   -2.5313   15.5684 H   0  0  0  0  0  0  0  0  0  0  0  0
  1  2  1  0
  2  3  1  0
  3  4  1  0
  4  5  1  0
  5  6  1  0
  6  7  1  0
  7  8  1  0
  8  9  1  0
  9 10  2  0
 10 11  1  0
 11 12  1  0
 12 13  1  0
 13 14  1  0
 14 15  1  0
 15 16  1  0
 11 17  2  0
 17 18  1  0
  8 19  1  0
 19 20  1  0
 20  5  1  0
 18  9  1  0
 16 12  1  0
  1 21  1  0
  1 22  1  0
  1 23  1  0
  2 24  1  0
  2 25  1  0
  3 26  1  0
  4 27  1  0
  4 28  1  0
  5 29  1  0
  6 30  1  0
  6 31  1  0
  7 32  1  0
  7 33  1  0
  8 34  1  0
 12 35  1  0
 13 36  1  0
 13 37  1  0
 14 38  1  0
 14 39  1  0
 15 40  1  0
 15 41  1  0
 16 42  1  0
 19 43  1  0
 19 44  1  0
 20 45  1  0
 20 46  1  0
M  END
>  <Energy>  (29) 
1029.9192866314061

>  <compound_id>  (29) 
4644

>  <target_id>  (29) 
1

>  <reference_id>  (29) 
93

>  <inspiration_ids>  (29) 
[93, 95]

>  <energy_score>  (29) 
929.5332649538954

>  <distance_score>  (29) 
6.233438875225006

>  <path>  (29) 
/opt/xchem-fragalysis-2/maxwin/BulkDock/SCRATCH/511018/C4644-P93/C4644-P93.minimised.mol

>  <scratch_subdir>  (29) 
/opt/xchem-fragalysis-2/maxwin/BulkDock/SCRATCH/511018/C4644-P93

>  <fragmenstein_runtime>  (29) 
7.756612062454224

>  <fragmenstein_outcome>  (29) 
too moved

>  <fragmenstein_mode>  (29) 
expansion

>  <fragmenstein_error>  (29) 


$$$$
C4644-P95
     RDKit          3D

 46 48  0  0  0  0  0  0  0  0999 V2000
   12.6408    1.7832   14.2797 C   0  0  0  0  0  0  0  0  0  0  0  0
   12.0510    0.4083   14.5710 C   0  0  0  0  0  0  0  0  0  0  0  0
   10.5953    0.5217   14.7207 N   0  0  0  0  0  0  0  0  0  0  0  0
    9.9464   -0.7977   14.7937 C   0  0  0  0  0  0  0  0  0  0  0  0
    8.4213   -0.7471   14.4022 C   0  0  0  0  0  0  0  0  0  0  0  0
    8.0621   -0.1355   13.0341 C   0  0  0  0  0  0  0  0  0  0  0  0
    7.0463   -1.0577   11.8319 C   0  0  0  0  0  0  0  0  0  0  0  0
    5.7912   -1.9832   12.2087 C   0  0  0  0  0  0  0  0  0  0  0  0
    3.9535   -2.5713   11.5390 C   0  0  0  0  0  0  0  0  0  0  0  0
    2.9982   -2.0877   10.5305 N   0  0  0  0  0  0  0  0  0  0  0  0
    1.2610   -1.5965   10.7799 C   0  0  0  0  0  0  0  0  0  0  0  0
   -0.3054   -1.0746    9.6281 C   0  0  0  0  0  0  0  0  0  0  0  0
   -2.3101   -0.8240    9.1821 C   0  0  0  0  0  0  0  0  0  0  0  0
   -3.4928   -0.8571    8.1736 C   0  0  0  0  0  0  0  0  0  0  0  0
   -2.4288   -1.1083    7.3092 C   0  0  0  0  0  0  0  0  0  0  0  0
   -1.5330   -1.7915    8.2540 N   0  0  0  0  0  0  0  0  0  0  0  0
    1.4291   -1.2805   12.0938 N   0  0  0  0  0  0  0  0  0  0  0  0
    2.5991   -2.8550   12.5353 O   0  0  0  0  0  0  0  0  0  0  0  0
    6.2757   -2.1415   13.8799 C   0  0  0  0  0  0  0  0  0  0  0  0
    7.7189   -2.0728   14.4669 C   0  0  0  0  0  0  0  0  0  0  0  0
   12.3289    2.5245   15.0212 H   0  0  0  0  0  0  0  0  0  0  0  0
   12.3193    2.1427   13.2958 H   0  0  0  0  0  0  0  0  0  0  0  0
   13.7341    1.7336   14.2773 H   0  0  0  0  0  0  0  0  0  0  0  0
   12.4984   -0.0082   15.4769 H   0  0  0  0  0  0  0  0  0  0  0  0
   12.3037   -0.2558   13.7358 H   0  0  0  0  0  0  0  0  0  0  0  0
   10.2425    1.0199   13.9069 H   0  0  0  0  0  0  0  0  0  0  0  0
   10.4846   -1.5472   14.2049 H   0  0  0  0  0  0  0  0  0  0  0  0
   10.0172   -1.1421   15.8315 H   0  0  0  0  0  0  0  0  0  0  0  0
    7.9882   -0.1418   15.2061 H   0  0  0  0  0  0  0  0  0  0  0  0
    8.9317    0.2940   12.5242 H   0  0  0  0  0  0  0  0  0  0  0  0
    7.9574    0.8953   13.2636 H   0  0  0  0  0  0  0  0  0  0  0  0
    6.9718   -0.4588   10.9384 H   0  0  0  0  0  0  0  0  0  0  0  0
    7.5395   -1.8475   11.3483 H   0  0  0  0  0  0  0  0  0  0  0  0
    5.4690   -0.9283   12.1237 H   0  0  0  0  0  0  0  0  0  0  0  0
    0.3872   -1.8717    9.1350 H   0  0  0  0  0  0  0  0  0  0  0  0
   -2.7371    0.1291    9.6367 H   0  0  0  0  0  0  0  0  0  0  0  0
   -2.9306   -1.7923    9.3408 H   0  0  0  0  0  0  0  0  0  0  0  0
   -4.2205   -1.6860    8.1974 H   0  0  0  0  0  0  0  0  0  0  0  0
   -4.1118    0.0341    8.1788 H   0  0  0  0  0  0  0  0  0  0  0  0
   -2.8205   -1.6210    6.4391 H   0  0  0  0  0  0  0  0  0  0  0  0
   -2.1096   -0.1176    7.2301 H   0  0  0  0  0  0  0  0  0  0  0  0
   -2.0258   -2.6553    8.4710 H   0  0  0  0  0  0  0  0  0  0  0  0
    6.0352   -1.1663   14.1712 H   0  0  0  0  0  0  0  0  0  0  0  0
    5.6073   -2.7293   14.4955 H   0  0  0  0  0  0  0  0  0  0  0  0
    8.3706   -2.8482   14.1715 H   0  0  0  0  0  0  0  0  0  0  0  0
    7.6760   -2.2470   15.5212 H   0  0  0  0  0  0  0  0  0  0  0  0
  1  2  1  0
  2  3  1  0
  3  4  1  0
  4  5  1  0
  5  6  1  0
  6  7  1  0
  7  8  1  0
  8  9  1  0
  9 10  2  0
 10 11  1  0
 11 12  1  0
 12 13  1  0
 13 14  1  0
 14 15  1  0
 15 16  1  0
 11 17  2  0
 17 18  1  0
  8 19  1  0
 19 20  1  0
 20  5  1  0
 18  9  1  0
 16 12  1  0
  1 21  1  0
  1 22  1  0
  1 23  1  0
  2 24  1  0
  2 25  1  0
  3 26  1  0
  4 27  1  0
  4 28  1  0
  5 29  1  0
  6 30  1  0
  6 31  1  0
  7 32  1  0
  7 33  1  0
  8 34  1  0
 12 35  1  0
 13 36  1  0
 13 37  1  0
 14 38  1  0
 14 39  1  0
 15 40  1  0
 15 41  1  0
 16 42  1  0
 19 43  1  0
 19 44  1  0
 20 45  1  0
 20 46  1  0
M  END
>  <Energy>  (30) 
1062.1450610125071

>  <compound_id>  (30) 
4644

>  <target_id>  (30) 
1

>  <reference_id>  (30) 
95

>  <inspiration_ids>  (30) 
[93, 95]

>  <energy_score>  (30) 
961.7590393349916

>  <distance_score>  (30) 
6.377874922639032

>  <path>  (30) 
/opt/xchem-fragalysis-2/maxwin/BulkDock/SCRATCH/511018/C4644-P95/C4644-P95.minimised.mol

>  <scratch_subdir>  (30) 
/opt/xchem-fragalysis-2/maxwin/BulkDock/SCRATCH/511018/C4644-P95

>  <fragmenstein_runtime>  (30) 
8.87360954284668

>  <fragmenstein_outcome>  (30) 
too moved

>  <fragmenstein_mode>  (30) 
expansion

>  <fragmenstein_error>  (30) 


$$$$
C4654-P93
     RDKit          3D

 35 36  0  0  0  0  0  0  0  0999 V2000
    8.4810    0.0043   12.9874 C   0  0  0  0  0  0  0  0  0  0  0  0
    7.3655   -0.6548   12.0794 N   0  0  0  0  0  0  0  0  0  0  0  0
    5.7942   -0.9089   12.4635 C   0  0  0  0  0  0  0  0  0  0  0  0
    3.9400   -0.4382   11.3453 C   0  0  0  0  0  0  0  0  0  0  0  0
    1.8699   -1.1399   10.7826 C   0  0  0  0  0  0  0  0  0  0  0  0
    0.2248   -0.9062   10.5073 C   0  0  0  0  0  0  0  0  0  0  0  0
   -1.5280   -0.6397    9.3981 C   0  0  0  0  0  0  0  0  0  0  0  0
   -1.2264   -1.6298    8.5235 C   0  0  0  0  0  0  0  0  0  0  0  0
    0.6864   -1.9818    9.3950 N   0  0  0  0  0  0  0  0  0  0  0  0
    6.5408   -1.6627   14.2055 C   0  0  0  0  0  0  0  0  0  0  0  0
    7.6610   -2.4427   14.0992 C   0  0  0  0  0  0  0  0  0  0  0  0
    9.0082   -2.4512   14.8047 C   0  0  0  0  0  0  0  0  0  0  0  0
    9.4893   -1.4388   15.5872 C   0  0  0  0  0  0  0  0  0  0  0  0
    8.5025   -0.6637   16.0398 C   0  0  0  0  0  0  0  0  0  0  0  0
    7.1627   -0.9511   15.5690 C   0  0  0  0  0  0  0  0  0  0  0  0
    8.8234    0.9657   12.6781 H   0  0  0  0  0  0  0  0  0  0  0  0
    9.5667   -0.1670   13.0282 H   0  0  0  0  0  0  0  0  0  0  0  0
    8.3172    0.1057   14.0194 H   0  0  0  0  0  0  0  0  0  0  0  0
    7.3766   -0.3917   11.1052 H   0  0  0  0  0  0  0  0  0  0  0  0
    5.8985   -1.9785   12.2852 H   0  0  0  0  0  0  0  0  0  0  0  0
    3.5464    0.6265   11.5814 H   0  0  0  0  0  0  0  0  0  0  0  0
    4.4238    0.0960   10.5048 H   0  0  0  0  0  0  0  0  0  0  0  0
    1.5971   -0.9233   11.8440 H   0  0  0  0  0  0  0  0  0  0  0  0
    0.7869   -0.1673    9.9068 H   0  0  0  0  0  0  0  0  0  0  0  0
   -0.1077   -0.6103   11.5619 H   0  0  0  0  0  0  0  0  0  0  0  0
   -2.4652   -0.1760    9.7540 H   0  0  0  0  0  0  0  0  0  0  0  0
   -1.7237    0.1907    8.7028 H   0  0  0  0  0  0  0  0  0  0  0  0
   -2.1750   -2.2192    8.6576 H   0  0  0  0  0  0  0  0  0  0  0  0
   -1.3301   -1.2052    7.4562 H   0  0  0  0  0  0  0  0  0  0  0  0
    1.1542   -1.8015    8.5026 H   0  0  0  0  0  0  0  0  0  0  0  0
    7.7913   -2.7433   13.1060 H   0  0  0  0  0  0  0  0  0  0  0  0
    9.8105   -3.1166   14.4925 H   0  0  0  0  0  0  0  0  0  0  0  0
   10.5363   -1.3462   15.8375 H   0  0  0  0  0  0  0  0  0  0  0  0
    8.6666    0.1511   16.7398 H   0  0  0  0  0  0  0  0  0  0  0  0
    6.6265   -0.2082   16.1866 H   0  0  0  0  0  0  0  0  0  0  0  0
  1  2  1  0
  2  3  1  0
  3  4  1  0
  4  5  1  0
  5  6  1  0
  6  7  1  0
  7  8  1  0
  8  9  1  0
  3 10  1  0
 10 11  2  0
 11 12  1  0
 12 13  2  0
 13 14  1  0
 14 15  2  0
  9  5  1  0
 15 10  1  0
  1 16  1  0
  1 17  1  0
  1 18  1  0
  2 19  1  0
  3 20  1  0
  4 21  1  0
  4 22  1  0
  5 23  1  0
  6 24  1  0
  6 25  1  0
  7 26  1  0
  7 27  1  0
  8 28  1  0
  8 29  1  0
  9 30  1  0
 11 31  1  0
 12 32  1  0
 13 33  1  0
 14 34  1  0
 15 35  1  0
M  END
>  <Energy>  (31) 
1285.0622659711742

>  <compound_id>  (31) 
4654

>  <target_id>  (31) 
1

>  <reference_id>  (31) 
93

>  <inspiration_ids>  (31) 
[93, 95]

>  <energy_score>  (31) 
1233.128414866624

>  <distance_score>  (31) 
7.443487506096255

>  <path>  (31) 
/opt/xchem-fragalysis-2/maxwin/BulkDock/SCRATCH/511018/C4654-P93/C4654-P93.minimised.mol

>  <scratch_subdir>  (31) 
/opt/xchem-fragalysis-2/maxwin/BulkDock/SCRATCH/511018/C4654-P93

>  <fragmenstein_runtime>  (31) 
6.518167734146118

>  <fragmenstein_outcome>  (31) 
too moved

>  <fragmenstein_mode>  (31) 
expansion

>  <fragmenstein_error>  (31) 


$$$$
C4654-P95
     RDKit          3D

 35 36  0  0  0  0  0  0  0  0999 V2000
    6.3867   -0.1306    9.9457 C   0  0  0  0  0  0  0  0  0  0  0  0
    4.5459   -0.0337   10.4810 N   0  0  0  0  0  0  0  0  0  0  0  0
    3.5703   -1.6457   10.9939 C   0  0  0  0  0  0  0  0  0  0  0  0
    1.4751   -1.5171   10.6254 C   0  0  0  0  0  0  0  0  0  0  0  0
   -0.3679   -1.0739    9.6703 C   0  0  0  0  0  0  0  0  0  0  0  0
   -2.2487   -0.3077    9.0444 C   0  0  0  0  0  0  0  0  0  0  0  0
   -3.4911   -0.8716    8.3084 C   0  0  0  0  0  0  0  0  0  0  0  0
   -2.5935   -1.4370    7.3580 C   0  0  0  0  0  0  0  0  0  0  0  0
   -1.7263   -1.8449    8.5258 N   0  0  0  0  0  0  0  0  0  0  0  0
    5.1978   -2.4642   12.0120 C   0  0  0  0  0  0  0  0  0  0  0  0
    5.7808   -2.5369   13.6698 C   0  0  0  0  0  0  0  0  0  0  0  0
    7.0178   -2.2788   14.4469 C   0  0  0  0  0  0  0  0  0  0  0  0
    7.9022   -1.3972   14.0724 C   0  0  0  0  0  0  0  0  0  0  0  0
    7.4461   -0.9178   12.9052 C   0  0  0  0  0  0  0  0  0  0  0  0
    6.2781   -1.4286   12.1380 C   0  0  0  0  0  0  0  0  0  0  0  0
    7.1256   -0.2790   10.7060 H   0  0  0  0  0  0  0  0  0  0  0  0
    6.8339   -0.6048    9.0608 H   0  0  0  0  0  0  0  0  0  0  0  0
    6.3128    0.8234    9.4500 H   0  0  0  0  0  0  0  0  0  0  0  0
    4.4674    0.7446   11.1287 H   0  0  0  0  0  0  0  0  0  0  0  0
    3.1511   -0.6468   11.3208 H   0  0  0  0  0  0  0  0  0  0  0  0
    1.6750   -0.9990    9.7123 H   0  0  0  0  0  0  0  0  0  0  0  0
    1.2024   -1.1611   11.6302 H   0  0  0  0  0  0  0  0  0  0  0  0
   -0.7312   -1.2051   10.8292 H   0  0  0  0  0  0  0  0  0  0  0  0
   -2.8245    0.2181    9.8304 H   0  0  0  0  0  0  0  0  0  0  0  0
   -2.1505    0.5320    8.3708 H   0  0  0  0  0  0  0  0  0  0  0  0
   -4.2146   -0.1539    7.9314 H   0  0  0  0  0  0  0  0  0  0  0  0
   -4.1017   -1.5712    8.8729 H   0  0  0  0  0  0  0  0  0  0  0  0
   -3.0786   -2.2801    6.8483 H   0  0  0  0  0  0  0  0  0  0  0  0
   -2.0877   -0.8362    6.6137 H   0  0  0  0  0  0  0  0  0  0  0  0
   -2.3651   -2.2952    9.1717 H   0  0  0  0  0  0  0  0  0  0  0  0
    5.0152   -2.7341   14.4504 H   0  0  0  0  0  0  0  0  0  0  0  0
    7.3398   -2.8438   15.2731 H   0  0  0  0  0  0  0  0  0  0  0  0
    8.7932   -1.0955   14.5925 H   0  0  0  0  0  0  0  0  0  0  0  0
    7.9271   -0.0132   12.5449 H   0  0  0  0  0  0  0  0  0  0  0  0
    5.7819   -0.4875   12.0729 H   0  0  0  0  0  0  0  0  0  0  0  0
  1  2  1  0
  2  3  1  0
  3  4  1  0
  4  5  1  0
  5  6  1  0
  6  7  1  0
  7  8  1  0
  8  9  1  0
  3 10  1  0
 10 11  2  0
 11 12  1  0
 12 13  2  0
 13 14  1  0
 14 15  2  0
  9  5  1  0
 15 10  1  0
  1 16  1  0
  1 17  1  0
  1 18  1  0
  2 19  1  0
  3 20  1  0
  4 21  1  0
  4 22  1  0
  5 23  1  0
  6 24  1  0
  6 25  1  0
  7 26  1  0
  7 27  1  0
  8 28  1  0
  8 29  1  0
  9 30  1  0
 11 31  1  0
 12 32  1  0
 13 33  1  0
 14 34  1  0
 15 35  1  0
M  END
>  <Energy>  (32) 
1185.9055866203446

>  <compound_id>  (32) 
4654

>  <target_id>  (32) 
1

>  <reference_id>  (32) 
95

>  <inspiration_ids>  (32) 
[93, 95]

>  <energy_score>  (32) 
1133.9717355158125

>  <distance_score>  (32) 
8.104786274055403

>  <path>  (32) 
/opt/xchem-fragalysis-2/maxwin/BulkDock/SCRATCH/511018/C4654-P95/C4654-P95.minimised.mol

>  <scratch_subdir>  (32) 
/opt/xchem-fragalysis-2/maxwin/BulkDock/SCRATCH/511018/C4654-P95

>  <fragmenstein_runtime>  (32) 
6.374314785003662

>  <fragmenstein_outcome>  (32) 
too moved

>  <fragmenstein_mode>  (32) 
expansion

>  <fragmenstein_error>  (32) 


$$$$
C4655-P93
     RDKit          3D

 35 36  0  0  0  0  0  0  0  0999 V2000
    6.3906   -0.5381   10.6809 C   0  0  0  0  0  0  0  0  0  0  0  0
    4.6927   -0.5556   11.1372 N   0  0  0  0  0  0  0  0  0  0  0  0
    3.4272   -2.0345   11.3873 C   0  0  0  0  0  0  0  0  0  0  0  0
    1.5314   -1.5347   10.3922 C   0  0  0  0  0  0  0  0  0  0  0  0
   -0.4338   -1.0079    9.9109 C   0  0  0  0  0  0  0  0  0  0  0  0
   -2.1905    0.0214    9.4739 C   0  0  0  0  0  0  0  0  0  0  0  0
   -3.4758   -0.4372    8.7765 C   0  0  0  0  0  0  0  0  0  0  0  0
   -2.7365   -1.0833    7.7335 C   0  0  0  0  0  0  0  0  0  0  0  0
   -1.6794   -1.6581    8.5199 N   0  0  0  0  0  0  0  0  0  0  0  0
    4.9046   -2.9413   12.4703 C   0  0  0  0  0  0  0  0  0  0  0  0
    5.4661   -2.8849   14.1512 C   0  0  0  0  0  0  0  0  0  0  0  0
    6.6572   -2.3882   14.9098 C   0  0  0  0  0  0  0  0  0  0  0  0
    7.4327   -1.3876   14.5929 C   0  0  0  0  0  0  0  0  0  0  0  0
    8.5629   -1.1266   15.2585 F   0  0  0  0  0  0  0  0  0  0  0  0
    7.3637   -1.5707   13.3000 C   0  0  0  0  0  0  0  0  0  0  0  0
    6.2588   -2.1068   12.4333 C   0  0  0  0  0  0  0  0  0  0  0  0
    7.0846   -0.4036   11.5001 H   0  0  0  0  0  0  0  0  0  0  0  0
    6.4182    0.3074    9.9849 H   0  0  0  0  0  0  0  0  0  0  0  0
    6.9764   -1.1320   10.0020 H   0  0  0  0  0  0  0  0  0  0  0  0
    4.2854    0.3626   10.9530 H   0  0  0  0  0  0  0  0  0  0  0  0
    2.8806   -0.8573   11.6809 H   0  0  0  0  0  0  0  0  0  0  0  0
    1.4916   -2.1536    9.5185 H   0  0  0  0  0  0  0  0  0  0  0  0
    1.7303   -0.5408    9.9976 H   0  0  0  0  0  0  0  0  0  0  0  0
   -0.8748   -1.2555   10.9166 H   0  0  0  0  0  0  0  0  0  0  0  0
   -2.6288    0.4921   10.3952 H   0  0  0  0  0  0  0  0  0  0  0  0
   -2.0050    0.8843    8.8689 H   0  0  0  0  0  0  0  0  0  0  0  0
   -4.1473   -1.1160    9.2973 H   0  0  0  0  0  0  0  0  0  0  0  0
   -4.1448    0.3624    8.4577 H   0  0  0  0  0  0  0  0  0  0  0  0
   -2.2967   -0.5012    6.9498 H   0  0  0  0  0  0  0  0  0  0  0  0
   -3.4054   -1.8473    7.3248 H   0  0  0  0  0  0  0  0  0  0  0  0
   -2.3343   -2.1844    9.1232 H   0  0  0  0  0  0  0  0  0  0  0  0
    4.8912   -3.3949   14.9183 H   0  0  0  0  0  0  0  0  0  0  0  0
    7.2378   -3.0846   15.4781 H   0  0  0  0  0  0  0  0  0  0  0  0
    8.0380   -2.4274   13.2343 H   0  0  0  0  0  0  0  0  0  0  0  0
    6.8809   -2.3753   11.5594 H   0  0  0  0  0  0  0  0  0  0  0  0
  1  2  1  0
  2  3  1  0
  3  4  1  0
  4  5  1  0
  5  6  1  0
  6  7  1  0
  7  8  1  0
  8  9  1  0
  3 10  1  0
 10 11  2  0
 11 12  1  0
 12 13  2  0
 13 14  1  0
 13 15  1  0
 15 16  2  0
  9  5  1  0
 16 10  1  0
  1 17  1  0
  1 18  1  0
  1 19  1  0
  2 20  1  0
  3 21  1  0
  4 22  1  0
  4 23  1  0
  5 24  1  0
  6 25  1  0
  6 26  1  0
  7 27  1  0
  7 28  1  0
  8 29  1  0
  8 30  1  0
  9 31  1  0
 11 32  1  0
 12 33  1  0
 15 34  1  0
 16 35  1  0
M  END
>  <Energy>  (33) 
1203.5399250888102

>  <compound_id>  (33) 
4655

>  <target_id>  (33) 
1

>  <reference_id>  (33) 
93

>  <inspiration_ids>  (33) 
[93, 95]

>  <energy_score>  (33) 
1149.1794744354577

>  <distance_score>  (33) 
7.9495853791154465

>  <path>  (33) 
/opt/xchem-fragalysis-2/maxwin/BulkDock/SCRATCH/511018/C4655-P93/C4655-P93.minimised.mol

>  <scratch_subdir>  (33) 
/opt/xchem-fragalysis-2/maxwin/BulkDock/SCRATCH/511018/C4655-P93

>  <fragmenstein_runtime>  (33) 
7.2260425090789795

>  <fragmenstein_outcome>  (33) 
too moved

>  <fragmenstein_mode>  (33) 
expansion

>  <fragmenstein_error>  (33) 


$$$$
C4655-P95
     RDKit          3D

 35 36  0  0  0  0  0  0  0  0999 V2000
    6.1796   -0.1267   10.0069 C   0  0  0  0  0  0  0  0  0  0  0  0
    4.3442   -0.1341   10.7528 N   0  0  0  0  0  0  0  0  0  0  0  0
    2.9288   -1.5997   10.8680 C   0  0  0  0  0  0  0  0  0  0  0  0
    0.8854   -1.3225    9.9018 C   0  0  0  0  0  0  0  0  0  0  0  0
   -1.2571   -1.2326    9.1521 C   0  0  0  0  0  0  0  0  0  0  0  0
   -2.6850   -0.0086    8.9200 C   0  0  0  0  0  0  0  0  0  0  0  0
   -3.6591   -0.5408    7.8631 C   0  0  0  0  0  0  0  0  0  0  0  0
   -3.8722   -1.8676    8.3052 C   0  0  0  0  0  0  0  0  0  0  0  0
   -2.5457   -2.3685    8.5942 N   0  0  0  0  0  0  0  0  0  0  0  0
    4.5655   -2.6015   11.8291 C   0  0  0  0  0  0  0  0  0  0  0  0
    5.5899   -2.6177   13.3990 C   0  0  0  0  0  0  0  0  0  0  0  0
    6.8016   -2.2465   14.3391 C   0  0  0  0  0  0  0  0  0  0  0  0
    7.6257   -1.2936   14.0407 C   0  0  0  0  0  0  0  0  0  0  0  0
    8.6194   -0.8168   14.7808 F   0  0  0  0  0  0  0  0  0  0  0  0
    7.2794   -0.9949   12.7998 C   0  0  0  0  0  0  0  0  0  0  0  0
    6.0522   -1.6751   11.9922 C   0  0  0  0  0  0  0  0  0  0  0  0
    6.9700   -0.2593   10.7278 H   0  0  0  0  0  0  0  0  0  0  0  0
    6.7493   -0.5527    9.1489 H   0  0  0  0  0  0  0  0  0  0  0  0
    6.1164    0.8629    9.4838 H   0  0  0  0  0  0  0  0  0  0  0  0
    3.9679    0.8007   10.5787 H   0  0  0  0  0  0  0  0  0  0  0  0
    2.4629   -0.6946   11.3700 H   0  0  0  0  0  0  0  0  0  0  0  0
    1.2598   -1.6289    8.9450 H   0  0  0  0  0  0  0  0  0  0  0  0
    0.5101   -1.6560   10.8575 H   0  0  0  0  0  0  0  0  0  0  0  0
   -1.4551   -1.2414    8.0367 H   0  0  0  0  0  0  0  0  0  0  0  0
   -2.3958    0.9632    8.5893 H   0  0  0  0  0  0  0  0  0  0  0  0
   -3.2640    0.2459    9.8181 H   0  0  0  0  0  0  0  0  0  0  0  0
   -3.2498   -0.6560    6.8622 H   0  0  0  0  0  0  0  0  0  0  0  0
   -4.6171   -0.0047    7.8466 H   0  0  0  0  0  0  0  0  0  0  0  0
   -4.5075   -1.6942    9.1560 H   0  0  0  0  0  0  0  0  0  0  0  0
   -4.3944   -2.4757    7.5573 H   0  0  0  0  0  0  0  0  0  0  0  0
   -2.2475   -2.7647    7.6983 H   0  0  0  0  0  0  0  0  0  0  0  0
    4.8797   -2.7476   14.3012 H   0  0  0  0  0  0  0  0  0  0  0  0
    7.0780   -2.8612   15.1406 H   0  0  0  0  0  0  0  0  0  0  0  0
    7.8312   -0.1998   12.3218 H   0  0  0  0  0  0  0  0  0  0  0  0
    6.7518   -2.0720   11.2143 H   0  0  0  0  0  0  0  0  0  0  0  0
  1  2  1  0
  2  3  1  0
  3  4  1  0
  4  5  1  0
  5  6  1  0
  6  7  1  0
  7  8  1  0
  8  9  1  0
  3 10  1  0
 10 11  2  0
 11 12  1  0
 12 13  2  0
 13 14  1  0
 13 15  1  0
 15 16  2  0
  9  5  1  0
 16 10  1  0
  1 17  1  0
  1 18  1  0
  1 19  1  0
  2 20  1  0
  3 21  1  0
  4 22  1  0
  4 23  1  0
  5 24  1  0
  6 25  1  0
  6 26  1  0
  7 27  1  0
  7 28  1  0
  8 29  1  0
  8 30  1  0
  9 31  1  0
 11 32  1  0
 12 33  1  0
 15 34  1  0
 16 35  1  0
M  END
>  <Energy>  (34) 
1393.1906706761613

>  <compound_id>  (34) 
4655

>  <target_id>  (34) 
1

>  <reference_id>  (34) 
95

>  <inspiration_ids>  (34) 
[93, 95]

>  <energy_score>  (34) 
1338.830220022815

>  <distance_score>  (34) 
8.030951170924073

>  <path>  (34) 
/opt/xchem-fragalysis-2/maxwin/BulkDock/SCRATCH/511018/C4655-P95/C4655-P95.minimised.mol

>  <scratch_subdir>  (34) 
/opt/xchem-fragalysis-2/maxwin/BulkDock/SCRATCH/511018/C4655-P95

>  <fragmenstein_runtime>  (34) 
6.71781325340271

>  <fragmenstein_outcome>  (34) 
too moved

>  <fragmenstein_mode>  (34) 
expansion

>  <fragmenstein_error>  (34) 


$$$$
C4658-P93
     RDKit          3D

 52 53  0  0  0  0  0  0  0  0999 V2000
   -2.7253    2.2820    9.2951 C   0  0  0  0  0  0  0  0  0  0  0  0
   -2.7573    0.7109    9.7591 C   0  0  0  0  0  0  0  0  0  0  0  0
   -1.5249   -0.5584    9.2389 N   0  0  0  0  0  0  0  0  0  0  0  0
   -2.2133   -1.1716    7.9856 C   0  0  0  0  0  0  0  0  0  0  0  0
   -3.7664   -1.2225    7.8830 C   0  0  0  0  0  0  0  0  0  0  0  0
    0.7541   -0.7593   10.0935 S   0  0  0  0  0  0  0  0  0  0  0  0
    1.2615   -1.9382    9.4809 O   0  0  0  0  0  0  0  0  0  0  0  0
    0.5749   -0.7672   11.5479 O   0  0  0  0  0  0  0  0  0  0  0  0
    2.5061    0.9549   10.0130 C   0  0  0  0  0  0  0  0  0  0  0  0
    3.7625    1.4523    9.2870 C   0  0  0  0  0  0  0  0  0  0  0  0
    5.4248    1.4089    9.7908 C   0  0  0  0  0  0  0  0  0  0  0  0
    5.9492    0.7776   10.9934 C   0  0  0  0  0  0  0  0  0  0  0  0
    7.3284   -0.2061   11.8847 C   0  0  0  0  0  0  0  0  0  0  0  0
    9.0240    0.3211   12.6477 C   0  0  0  0  0  0  0  0  0  0  0  0
    6.8663   -1.1237   12.9881 N   0  0  0  0  0  0  0  0  0  0  0  0
    7.5533   -1.4947   14.2702 C   0  0  0  0  0  0  0  0  0  0  0  0
    8.7323   -0.9680   15.2718 C   0  0  0  0  0  0  0  0  0  0  0  0
    8.8966    0.4122   15.9242 C   0  0  0  0  0  0  0  0  0  0  0  0
   10.3367    0.8175   15.6481 C   0  0  0  0  0  0  0  0  0  0  0  0
   11.0832   -0.4797   15.4259 C   0  0  0  0  0  0  0  0  0  0  0  0
   10.0996   -1.5196   15.1300 N   0  0  0  0  0  0  0  0  0  0  0  0
    4.7370    0.6714   11.4753 C   0  0  0  0  0  0  0  0  0  0  0  0
    3.2190    0.9878   11.2514 C   0  0  0  0  0  0  0  0  0  0  0  0
   -3.6148    2.5858    8.7266 H   0  0  0  0  0  0  0  0  0  0  0  0
   -2.7183    2.9583   10.1647 H   0  0  0  0  0  0  0  0  0  0  0  0
   -1.9230    2.6227    8.6486 H   0  0  0  0  0  0  0  0  0  0  0  0
   -2.8263    0.6822   10.8589 H   0  0  0  0  0  0  0  0  0  0  0  0
   -3.7169    0.3318    9.4452 H   0  0  0  0  0  0  0  0  0  0  0  0
   -2.0776   -2.2134    8.0144 H   0  0  0  0  0  0  0  0  0  0  0  0
   -1.8175   -0.7008    7.0950 H   0  0  0  0  0  0  0  0  0  0  0  0
   -4.0741   -2.0175    7.1959 H   0  0  0  0  0  0  0  0  0  0  0  0
   -4.2328   -1.4612    8.8340 H   0  0  0  0  0  0  0  0  0  0  0  0
   -4.2353   -0.3141    7.5123 H   0  0  0  0  0  0  0  0  0  0  0  0
    3.6662    1.7172    8.2245 H   0  0  0  0  0  0  0  0  0  0  0  0
    6.0804    1.6953    8.9636 H   0  0  0  0  0  0  0  0  0  0  0  0
    7.4379   -0.9695   11.1187 H   0  0  0  0  0  0  0  0  0  0  0  0
    8.8635    0.3573   13.6907 H   0  0  0  0  0  0  0  0  0  0  0  0
    9.4717    1.3270   12.5096 H   0  0  0  0  0  0  0  0  0  0  0  0
    9.9989   -0.1228   12.4666 H   0  0  0  0  0  0  0  0  0  0  0  0
    6.4244   -1.9321   12.5846 H   0  0  0  0  0  0  0  0  0  0  0  0
    7.8115   -2.5481   14.1373 H   0  0  0  0  0  0  0  0  0  0  0  0
    6.6906   -1.5596   14.9465 H   0  0  0  0  0  0  0  0  0  0  0  0
    8.4203   -1.5493   16.1069 H   0  0  0  0  0  0  0  0  0  0  0  0
    8.2381    1.2005   15.5922 H   0  0  0  0  0  0  0  0  0  0  0  0
    8.7439    0.3405   17.0057 H   0  0  0  0  0  0  0  0  0  0  0  0
   10.3959    1.4434   14.7514 H   0  0  0  0  0  0  0  0  0  0  0  0
   10.7559    1.4192   16.4570 H   0  0  0  0  0  0  0  0  0  0  0  0
   11.6405   -0.7620   16.3238 H   0  0  0  0  0  0  0  0  0  0  0  0
   11.8126   -0.3833   14.6146 H   0  0  0  0  0  0  0  0  0  0  0  0
   10.1783   -1.7743   14.1304 H   0  0  0  0  0  0  0  0  0  0  0  0
    4.7895   -0.4421   11.4469 H   0  0  0  0  0  0  0  0  0  0  0  0
    2.6828    0.8792   12.2017 H   0  0  0  0  0  0  0  0  0  0  0  0
  1  2  1  0
  2  3  1  0
  3  4  1  0
  4  5  1  0
  3  6  1  0
  6  7  2  0
  6  8  2  0
  6  9  1  0
  9 10  2  0
 10 11  1  0
 11 12  2  0
 12 13  1  0
 13 14  1  0
 13 15  1  0
 15 16  1  0
 16 17  1  0
 17 18  1  0
 18 19  1  0
 19 20  1  0
 20 21  1  0
 12 22  1  0
 22 23  2  0
 23  9  1  0
 21 17  1  0
  1 24  1  0
  1 25  1  0
  1 26  1  0
  2 27  1  0
  2 28  1  0
  4 29  1  0
  4 30  1  0
  5 31  1  0
  5 32  1  0
  5 33  1  0
 10 34  1  0
 11 35  1  0
 13 36  1  0
 14 37  1  0
 14 38  1  0
 14 39  1  0
 15 40  1  0
 16 41  1  0
 16 42  1  0
 17 43  1  0
 18 44  1  0
 18 45  1  0
 19 46  1  0
 19 47  1  0
 20 48  1  0
 20 49  1  0
 21 50  1  0
 22 51  1  0
 23 52  1  0
M  END
>  <Energy>  (35) 
743.27224847788659

>  <compound_id>  (35) 
4658

>  <target_id>  (35) 
1

>  <reference_id>  (35) 
93

>  <inspiration_ids>  (35) 
[93, 95]

>  <energy_score>  (35) 
675.6649090284718

>  <distance_score>  (35) 
9.450277523474378

>  <path>  (35) 
/opt/xchem-fragalysis-2/maxwin/BulkDock/SCRATCH/511018/C4658-P93/C4658-P93.minimised.mol

>  <scratch_subdir>  (35) 
/opt/xchem-fragalysis-2/maxwin/BulkDock/SCRATCH/511018/C4658-P93

>  <fragmenstein_runtime>  (35) 
10.043021440505981

>  <fragmenstein_outcome>  (35) 
too moved

>  <fragmenstein_mode>  (35) 
expansion

>  <fragmenstein_error>  (35) 


$$$$
C4658-P95
     RDKit          3D

 52 53  0  0  0  0  0  0  0  0999 V2000
   -3.8034   -0.7042    8.3411 C   0  0  0  0  0  0  0  0  0  0  0  0
   -2.2531   -0.7703    8.2382 C   0  0  0  0  0  0  0  0  0  0  0  0
   -1.1392   -1.7482    7.2384 N   0  0  0  0  0  0  0  0  0  0  0  0
   -2.7239   -2.8483    7.2083 C   0  0  0  0  0  0  0  0  0  0  0  0
   -3.7807   -2.3652    6.1480 C   0  0  0  0  0  0  0  0  0  0  0  0
    1.1631   -2.1938    8.1943 S   0  0  0  0  0  0  0  0  0  0  0  0
    0.8574   -1.4159    9.5313 O   0  0  0  0  0  0  0  0  0  0  0  0
    1.3321   -3.6456    8.1247 O   0  0  0  0  0  0  0  0  0  0  0  0
    3.0866   -2.5189    9.7519 C   0  0  0  0  0  0  0  0  0  0  0  0
    3.7168   -1.4850   11.0119 C   0  0  0  0  0  0  0  0  0  0  0  0
    5.4037   -0.9635   11.9250 C   0  0  0  0  0  0  0  0  0  0  0  0
    6.0321   -1.9791   12.4615 C   0  0  0  0  0  0  0  0  0  0  0  0
    6.7821   -1.6551   13.9290 C   0  0  0  0  0  0  0  0  0  0  0  0
    7.9989   -2.2708   14.6084 C   0  0  0  0  0  0  0  0  0  0  0  0
    7.0525   -0.1951   14.1460 N   0  0  0  0  0  0  0  0  0  0  0  0
    8.2949    0.3667   14.7770 C   0  0  0  0  0  0  0  0  0  0  0  0
    8.2378    0.6884   16.2915 C   0  0  0  0  0  0  0  0  0  0  0  0
    6.8987    1.1640   16.8465 C   0  0  0  0  0  0  0  0  0  0  0  0
    7.3007    1.8842   18.1155 C   0  0  0  0  0  0  0  0  0  0  0  0
    8.5690    2.5904   17.6853 C   0  0  0  0  0  0  0  0  0  0  0  0
    9.2365    1.6586   16.7665 N   0  0  0  0  0  0  0  0  0  0  0  0
    5.0011   -3.2527   11.7898 C   0  0  0  0  0  0  0  0  0  0  0  0
    3.9097   -3.7254   10.5098 C   0  0  0  0  0  0  0  0  0  0  0  0
   -4.2963   -1.5636    8.7714 H   0  0  0  0  0  0  0  0  0  0  0  0
   -4.3386   -0.4545    7.4298 H   0  0  0  0  0  0  0  0  0  0  0  0
   -4.0415    0.1046    9.0427 H   0  0  0  0  0  0  0  0  0  0  0  0
   -1.9210   -1.1487    9.1544 H   0  0  0  0  0  0  0  0  0  0  0  0
   -2.1032    0.2372    7.9551 H   0  0  0  0  0  0  0  0  0  0  0  0
   -2.6196   -3.9062    6.9467 H   0  0  0  0  0  0  0  0  0  0  0  0
   -3.0848   -2.8922    8.2277 H   0  0  0  0  0  0  0  0  0  0  0  0
   -4.7920   -2.4058    6.5650 H   0  0  0  0  0  0  0  0  0  0  0  0
   -3.8071   -3.0530    5.2937 H   0  0  0  0  0  0  0  0  0  0  0  0
   -3.5516   -1.3764    5.7435 H   0  0  0  0  0  0  0  0  0  0  0  0
    3.1869   -2.3207   11.5116 H   0  0  0  0  0  0  0  0  0  0  0  0
    6.3106   -0.6132   11.3413 H   0  0  0  0  0  0  0  0  0  0  0  0
    5.9521   -1.8803   14.6040 H   0  0  0  0  0  0  0  0  0  0  0  0
    8.9518   -2.2103   14.1125 H   0  0  0  0  0  0  0  0  0  0  0  0
    7.9197   -3.2357   15.0278 H   0  0  0  0  0  0  0  0  0  0  0  0
    8.1700   -1.7693   15.5561 H   0  0  0  0  0  0  0  0  0  0  0  0
    6.2168    0.2156   14.5527 H   0  0  0  0  0  0  0  0  0  0  0  0
    8.5499    1.3113   14.2960 H   0  0  0  0  0  0  0  0  0  0  0  0
    9.2011   -0.2030   14.5476 H   0  0  0  0  0  0  0  0  0  0  0  0
    8.5153   -0.2180   16.8143 H   0  0  0  0  0  0  0  0  0  0  0  0
    6.4028    1.8732   16.1776 H   0  0  0  0  0  0  0  0  0  0  0  0
    6.2100    0.3380   17.0484 H   0  0  0  0  0  0  0  0  0  0  0  0
    6.5302    2.5771   18.4648 H   0  0  0  0  0  0  0  0  0  0  0  0
    7.5107    1.1624   18.9142 H   0  0  0  0  0  0  0  0  0  0  0  0
    9.1999    2.8451   18.5398 H   0  0  0  0  0  0  0  0  0  0  0  0
    8.3224    3.5158   17.1515 H   0  0  0  0  0  0  0  0  0  0  0  0
    9.6548    2.1861   16.0006 H   0  0  0  0  0  0  0  0  0  0  0  0
    4.1053   -3.3638   12.4937 H   0  0  0  0  0  0  0  0  0  0  0  0
    3.6712   -4.7631   10.5996 H   0  0  0  0  0  0  0  0  0  0  0  0
  1  2  1  0
  2  3  1  0
  3  4  1  0
  4  5  1  0
  3  6  1  0
  6  7  2  0
  6  8  2  0
  6  9  1  0
  9 10  2  0
 10 11  1  0
 11 12  2  0
 12 13  1  0
 13 14  1  0
 13 15  1  0
 15 16  1  0
 16 17  1  0
 17 18  1  0
 18 19  1  0
 19 20  1  0
 20 21  1  0
 12 22  1  0
 22 23  2  0
 23  9  1  0
 21 17  1  0
  1 24  1  0
  1 25  1  0
  1 26  1  0
  2 27  1  0
  2 28  1  0
  4 29  1  0
  4 30  1  0
  5 31  1  0
  5 32  1  0
  5 33  1  0
 10 34  1  0
 11 35  1  0
 13 36  1  0
 14 37  1  0
 14 38  1  0
 14 39  1  0
 15 40  1  0
 16 41  1  0
 16 42  1  0
 17 43  1  0
 18 44  1  0
 18 45  1  0
 19 46  1  0
 19 47  1  0
 20 48  1  0
 20 49  1  0
 21 50  1  0
 22 51  1  0
 23 52  1  0
M  END
>  <Energy>  (36) 
1143.7089247833678

>  <compound_id>  (36) 
4658

>  <target_id>  (36) 
1

>  <reference_id>  (36) 
95

>  <inspiration_ids>  (36) 
[93, 95]

>  <energy_score>  (36) 
1076.1015853339613

>  <distance_score>  (36) 
8.756749819108636

>  <path>  (36) 
/opt/xchem-fragalysis-2/maxwin/BulkDock/SCRATCH/511018/C4658-P95/C4658-P95.minimised.mol

>  <scratch_subdir>  (36) 
/opt/xchem-fragalysis-2/maxwin/BulkDock/SCRATCH/511018/C4658-P95

>  <fragmenstein_runtime>  (36) 
11.51029634475708

>  <fragmenstein_outcome>  (36) 
too moved

>  <fragmenstein_mode>  (36) 
expansion

>  <fragmenstein_error>  (36) 


$$$$
C4661-P93
     RDKit          3D

 53 55  0  0  0  0  0  0  0  0999 V2000
    6.3808    0.1936   10.7575 C   0  0  0  0  0  0  0  0  0  0  0  0
    5.4753    0.3398   11.7867 C   0  0  0  0  0  0  0  0  0  0  0  0
    6.2379   -0.8840   12.8268 N   0  0  0  0  0  0  0  0  0  0  0  0
    7.4368   -1.1584   13.7941 C   0  0  0  0  0  0  0  0  0  0  0  0
    8.7087   -0.3344   14.3887 C   0  0  0  0  0  0  0  0  0  0  0  0
    8.7092    0.6135   15.5926 C   0  0  0  0  0  0  0  0  0  0  0  0
   10.1991    0.9043   15.7338 C   0  0  0  0  0  0  0  0  0  0  0  0
   10.8548   -0.4139   15.3771 C   0  0  0  0  0  0  0  0  0  0  0  0
    9.7103   -1.2701   15.0463 N   0  0  0  0  0  0  0  0  0  0  0  0
    3.7587    0.8679   11.2844 C   0  0  0  0  0  0  0  0  0  0  0  0
    3.2173    1.3272   10.1121 C   0  0  0  0  0  0  0  0  0  0  0  0
    1.8006    0.5506    9.4789 C   0  0  0  0  0  0  0  0  0  0  0  0
    0.5919   -0.7544    9.9931 C   0  0  0  0  0  0  0  0  0  0  0  0
   -1.3111   -0.8349    9.4386 N   0  0  0  0  0  0  0  0  0  0  0  0
   -2.3832    0.1945    8.9078 C   0  0  0  0  0  0  0  0  0  0  0  0
   -3.9693   -0.0441    8.8113 C   0  0  0  0  0  0  0  0  0  0  0  0
   -4.6649   -0.6538    7.5886 C   0  0  0  0  0  0  0  0  0  0  0  0
   -4.5661   -2.1402    7.4370 C   0  0  0  0  0  0  0  0  0  0  0  0
   -3.2434   -2.7614    7.8849 C   0  0  0  0  0  0  0  0  0  0  0  0
   -2.0192   -1.8914    8.2623 C   0  0  0  0  0  0  0  0  0  0  0  0
    1.2391   -0.9947   11.1726 C   0  0  0  0  0  0  0  0  0  0  0  0
    2.7205   -0.1351   11.6357 C   0  0  0  0  0  0  0  0  0  0  0  0
    6.5518   -0.8058   10.4333 H   0  0  0  0  0  0  0  0  0  0  0  0
    6.0527    0.8758    9.9993 H   0  0  0  0  0  0  0  0  0  0  0  0
    7.2842    0.1440   11.2912 H   0  0  0  0  0  0  0  0  0  0  0  0
    5.0255   -0.5325   11.3953 H   0  0  0  0  0  0  0  0  0  0  0  0
    5.7901   -0.4634   13.6354 H   0  0  0  0  0  0  0  0  0  0  0  0
    7.7307   -2.1642   13.5073 H   0  0  0  0  0  0  0  0  0  0  0  0
    6.9234   -1.4459   14.7330 H   0  0  0  0  0  0  0  0  0  0  0  0
    9.1955    0.1684   13.5432 H   0  0  0  0  0  0  0  0  0  0  0  0
    8.2281    1.5781   15.5175 H   0  0  0  0  0  0  0  0  0  0  0  0
    8.3086    0.1321   16.4939 H   0  0  0  0  0  0  0  0  0  0  0  0
   10.5008    1.6754   15.0132 H   0  0  0  0  0  0  0  0  0  0  0  0
   10.4317    1.2863   16.7221 H   0  0  0  0  0  0  0  0  0  0  0  0
   11.4333   -0.8335   16.2030 H   0  0  0  0  0  0  0  0  0  0  0  0
   11.5235   -0.2971   14.5167 H   0  0  0  0  0  0  0  0  0  0  0  0
    9.9815   -1.9015   14.2751 H   0  0  0  0  0  0  0  0  0  0  0  0
    3.7586    1.9518    9.4019 H   0  0  0  0  0  0  0  0  0  0  0  0
    1.8803    1.0321    8.4837 H   0  0  0  0  0  0  0  0  0  0  0  0
   -2.0640    0.1753    7.9033 H   0  0  0  0  0  0  0  0  0  0  0  0
   -2.2996    1.2234    9.1108 H   0  0  0  0  0  0  0  0  0  0  0  0
   -4.3472    0.9743    8.7309 H   0  0  0  0  0  0  0  0  0  0  0  0
   -4.3810   -0.4756    9.7152 H   0  0  0  0  0  0  0  0  0  0  0  0
   -5.7313   -0.3927    7.6463 H   0  0  0  0  0  0  0  0  0  0  0  0
   -4.3322   -0.1930    6.6681 H   0  0  0  0  0  0  0  0  0  0  0  0
   -4.7755   -2.4576    6.4205 H   0  0  0  0  0  0  0  0  0  0  0  0
   -5.4450   -2.5552    7.9120 H   0  0  0  0  0  0  0  0  0  0  0  0
   -3.2694   -3.5576    8.6022 H   0  0  0  0  0  0  0  0  0  0  0  0
   -3.0264   -3.5207    7.1763 H   0  0  0  0  0  0  0  0  0  0  0  0
   -1.8387   -1.3745    7.3640 H   0  0  0  0  0  0  0  0  0  0  0  0
   -2.8224   -1.7283    8.9298 H   0  0  0  0  0  0  0  0  0  0  0  0
    0.6834   -0.7707   12.1373 H   0  0  0  0  0  0  0  0  0  0  0  0
    3.3994   -0.9823   11.6209 H   0  0  0  0  0  0  0  0  0  0  0  0
  1  2  1  0
  2  3  1  0
  3  4  1  0
  4  5  1  0
  5  6  1  0
  6  7  1  0
  7  8  1  0
  8  9  1  0
  2 10  1  0
 10 11  2  0
 11 12  1  0
 12 13  2  0
 13 14  1  0
 14 15  1  0
 15 16  1  0
 16 17  1  0
 17 18  1  0
 18 19  1  0
 19 20  1  0
 13 21  1  0
 21 22  2  0
  9  5  1  0
 22 10  1  0
 20 14  1  0
  1 23  1  0
  1 24  1  0
  1 25  1  0
  2 26  1  0
  3 27  1  0
  4 28  1  0
  4 29  1  0
  5 30  1  0
  6 31  1  0
  6 32  1  0
  7 33  1  0
  7 34  1  0
  8 35  1  0
  8 36  1  0
  9 37  1  0
 11 38  1  0
 12 39  1  0
 15 40  1  0
 15 41  1  0
 16 42  1  0
 16 43  1  0
 17 44  1  0
 17 45  1  0
 18 46  1  0
 18 47  1  0
 19 48  1  0
 19 49  1  0
 20 50  1  0
 20 51  1  0
 21 52  1  0
 22 53  1  0
M  END
>  <Energy>  (37) 
878.55898600308387

>  <compound_id>  (37) 
4661

>  <target_id>  (37) 
1

>  <reference_id>  (37) 
93

>  <inspiration_ids>  (37) 
[93, 95]

>  <energy_score>  (37) 
796.249068366212

>  <distance_score>  (37) 
9.726072538396412

>  <path>  (37) 
/opt/xchem-fragalysis-2/maxwin/BulkDock/SCRATCH/511018/C4661-P93/C4661-P93.minimised.mol

>  <scratch_subdir>  (37) 
/opt/xchem-fragalysis-2/maxwin/BulkDock/SCRATCH/511018/C4661-P93

>  <fragmenstein_runtime>  (37) 
14.740371704101562

>  <fragmenstein_outcome>  (37) 
too moved

>  <fragmenstein_mode>  (37) 
expansion

>  <fragmenstein_error>  (37) 


$$$$
C4661-P95
     RDKit          3D

 53 55  0  0  0  0  0  0  0  0999 V2000
    5.6541   -2.4928   13.9256 C   0  0  0  0  0  0  0  0  0  0  0  0
    5.1119   -2.6175   12.0241 C   0  0  0  0  0  0  0  0  0  0  0  0
    6.2286   -1.2030   12.0330 N   0  0  0  0  0  0  0  0  0  0  0  0
    7.3480   -0.8842   12.9618 C   0  0  0  0  0  0  0  0  0  0  0  0
    7.8049   -0.2992   14.4232 C   0  0  0  0  0  0  0  0  0  0  0  0
    8.9287    0.7893   14.3837 C   0  0  0  0  0  0  0  0  0  0  0  0
   10.0021    0.3799   15.3572 C   0  0  0  0  0  0  0  0  0  0  0  0
    9.9125   -1.1069   15.2818 C   0  0  0  0  0  0  0  0  0  0  0  0
    8.4626   -1.3314   15.2995 N   0  0  0  0  0  0  0  0  0  0  0  0
    3.5202   -2.4196   10.8798 C   0  0  0  0  0  0  0  0  0  0  0  0
    2.1774   -1.5755   10.8337 C   0  0  0  0  0  0  0  0  0  0  0  0
    1.0897   -1.3674    9.5234 C   0  0  0  0  0  0  0  0  0  0  0  0
    0.8988   -2.2049    7.9685 C   0  0  0  0  0  0  0  0  0  0  0  0
   -0.8655   -1.8042    6.9794 N   0  0  0  0  0  0  0  0  0  0  0  0
   -2.1141   -0.8485    8.0298 C   0  0  0  0  0  0  0  0  0  0  0  0
   -3.7293   -0.7986    8.3528 C   0  0  0  0  0  0  0  0  0  0  0  0
   -4.9670   -0.7724    7.4586 C   0  0  0  0  0  0  0  0  0  0  0  0
   -5.0335   -1.9764    6.5812 C   0  0  0  0  0  0  0  0  0  0  0  0
   -3.6611   -2.1605    6.0024 C   0  0  0  0  0  0  0  0  0  0  0  0
   -2.5620   -2.6855    7.0840 C   0  0  0  0  0  0  0  0  0  0  0  0
    2.2305   -3.1485    8.1177 C   0  0  0  0  0  0  0  0  0  0  0  0
    3.3501   -3.1900    9.3879 C   0  0  0  0  0  0  0  0  0  0  0  0
    4.9472   -2.8925   14.6504 H   0  0  0  0  0  0  0  0  0  0  0  0
    6.6352   -2.8717   14.1325 H   0  0  0  0  0  0  0  0  0  0  0  0
    5.6931   -1.4685   14.3288 H   0  0  0  0  0  0  0  0  0  0  0  0
    5.4338   -3.5216   11.5078 H   0  0  0  0  0  0  0  0  0  0  0  0
    5.7007   -0.3522   11.8519 H   0  0  0  0  0  0  0  0  0  0  0  0
    7.8438   -0.1958   12.2896 H   0  0  0  0  0  0  0  0  0  0  0  0
    7.7618   -1.8692   13.0259 H   0  0  0  0  0  0  0  0  0  0  0  0
    6.9302    0.0907   14.9520 H   0  0  0  0  0  0  0  0  0  0  0  0
    9.3879    0.8767   13.3934 H   0  0  0  0  0  0  0  0  0  0  0  0
    8.5857    1.7769   14.6976 H   0  0  0  0  0  0  0  0  0  0  0  0
   10.9880    0.7642   15.0805 H   0  0  0  0  0  0  0  0  0  0  0  0
    9.7563    0.7440   16.3621 H   0  0  0  0  0  0  0  0  0  0  0  0
   10.4207   -1.5749   16.1244 H   0  0  0  0  0  0  0  0  0  0  0  0
   10.3790   -1.5014   14.3766 H   0  0  0  0  0  0  0  0  0  0  0  0
    8.3069   -2.2505   14.8890 H   0  0  0  0  0  0  0  0  0  0  0  0
    1.6804   -1.0665   11.6644 H   0  0  0  0  0  0  0  0  0  0  0  0
    0.1610   -1.0478    9.9347 H   0  0  0  0  0  0  0  0  0  0  0  0
   -1.7763   -1.1324    8.9918 H   0  0  0  0  0  0  0  0  0  0  0  0
   -2.0595    0.1575    7.7315 H   0  0  0  0  0  0  0  0  0  0  0  0
   -3.9699   -1.5928    9.0424 H   0  0  0  0  0  0  0  0  0  0  0  0
   -3.8337    0.0944    8.9845 H   0  0  0  0  0  0  0  0  0  0  0  0
   -5.8589   -0.7612    8.1004 H   0  0  0  0  0  0  0  0  0  0  0  0
   -5.0677    0.1283    6.8587 H   0  0  0  0  0  0  0  0  0  0  0  0
   -5.7759   -1.8242    5.7897 H   0  0  0  0  0  0  0  0  0  0  0  0
   -5.3384   -2.8678    7.1371 H   0  0  0  0  0  0  0  0  0  0  0  0
   -3.8237   -2.9106    5.2137 H   0  0  0  0  0  0  0  0  0  0  0  0
   -3.3333   -1.2590    5.4864 H   0  0  0  0  0  0  0  0  0  0  0  0
   -2.8899   -2.7565    8.1216 H   0  0  0  0  0  0  0  0  0  0  0  0
   -2.6138   -3.7924    6.9600 H   0  0  0  0  0  0  0  0  0  0  0  0
    2.5401   -4.0734    7.6741 H   0  0  0  0  0  0  0  0  0  0  0  0
    4.0400   -4.0137    9.1866 H   0  0  0  0  0  0  0  0  0  0  0  0
  1  2  1  0
  2  3  1  0
  3  4  1  0
  4  5  1  0
  5  6  1  0
  6  7  1  0
  7  8  1  0
  8  9  1  0
  2 10  1  0
 10 11  2  0
 11 12  1  0
 12 13  2  0
 13 14  1  0
 14 15  1  0
 15 16  1  0
 16 17  1  0
 17 18  1  0
 18 19  1  0
 19 20  1  0
 13 21  1  0
 21 22  2  0
  9  5  1  0
 22 10  1  0
 20 14  1  0
  1 23  1  0
  1 24  1  0
  1 25  1  0
  2 26  1  0
  3 27  1  0
  4 28  1  0
  4 29  1  0
  5 30  1  0
  6 31  1  0
  6 32  1  0
  7 33  1  0
  7 34  1  0
  8 35  1  0
  8 36  1  0
  9 37  1  0
 11 38  1  0
 12 39  1  0
 15 40  1  0
 15 41  1  0
 16 42  1  0
 16 43  1  0
 17 44  1  0
 17 45  1  0
 18 46  1  0
 18 47  1  0
 19 48  1  0
 19 49  1  0
 20 50  1  0
 20 51  1  0
 21 52  1  0
 22 53  1  0
M  END
>  <Energy>  (38) 
913.21019147694494

>  <compound_id>  (38) 
4661

>  <target_id>  (38) 
1

>  <reference_id>  (38) 
95

>  <inspiration_ids>  (38) 
[93, 95]

>  <energy_score>  (38) 
830.9002738400715

>  <distance_score>  (38) 
9.92754019841693

>  <path>  (38) 
/opt/xchem-fragalysis-2/maxwin/BulkDock/SCRATCH/511018/C4661-P95/C4661-P95.minimised.mol

>  <scratch_subdir>  (38) 
/opt/xchem-fragalysis-2/maxwin/BulkDock/SCRATCH/511018/C4661-P95

>  <fragmenstein_runtime>  (38) 
17.856266021728516

>  <fragmenstein_outcome>  (38) 
too moved

>  <fragmenstein_mode>  (38) 
expansion

>  <fragmenstein_error>  (38) 


$$$$
C4663-P93
     RDKit          3D

 44 45  0  0  0  0  0  0  0  0999 V2000
    9.9773    1.4149   16.0709 C   0  0  0  0  0  0  0  0  0  0  0  0
    8.8178    0.4271   16.0475 C   0  0  0  0  0  0  0  0  0  0  0  0
    9.0554   -0.6625   14.9909 C   0  0  0  0  0  0  0  0  0  0  0  0
    7.8912   -1.4257   14.4976 C   0  0  0  0  0  0  0  0  0  0  0  0
    7.6232   -1.8922   13.2952 C   0  0  0  0  0  0  0  0  0  0  0  0
    6.3635   -1.9461   12.5680 C   0  0  0  0  0  0  0  0  0  0  0  0
    5.1980   -2.8559   12.5381 C   0  0  0  0  0  0  0  0  0  0  0  0
    3.6662   -2.0314   11.4170 C   0  0  0  0  0  0  0  0  0  0  0  0
    1.7023   -1.2456   10.8531 C   0  0  0  0  0  0  0  0  0  0  0  0
   -0.1861   -1.0853    9.9831 C   0  0  0  0  0  0  0  0  0  0  0  0
   -1.6192   -1.5484    8.4732 C   0  0  0  0  0  0  0  0  0  0  0  0
   -3.1078   -1.1558    8.0571 C   0  0  0  0  0  0  0  0  0  0  0  0
   -3.3038   -0.2714    9.1318 C   0  0  0  0  0  0  0  0  0  0  0  0
   -1.8282   -0.2167    9.2860 N   0  0  0  0  0  0  0  0  0  0  0  0
    4.8506   -0.5411   11.0706 N   0  0  0  0  0  0  0  0  0  0  0  0
    6.5136   -0.5654   10.6554 C   0  0  0  0  0  0  0  0  0  0  0  0
    5.6646   -2.7724   14.2161 C   0  0  0  0  0  0  0  0  0  0  0  0
    6.8497   -2.0008   15.0343 C   0  0  0  0  0  0  0  0  0  0  0  0
   10.0163    1.9934   15.1422 H   0  0  0  0  0  0  0  0  0  0  0  0
   10.9351    0.8986   16.1807 H   0  0  0  0  0  0  0  0  0  0  0  0
    9.8596    2.1222   16.8973 H   0  0  0  0  0  0  0  0  0  0  0  0
    7.9076    0.9963   15.8755 H   0  0  0  0  0  0  0  0  0  0  0  0
    8.6758   -0.0059   17.0334 H   0  0  0  0  0  0  0  0  0  0  0  0
    9.5035   -0.1412   14.1360 H   0  0  0  0  0  0  0  0  0  0  0  0
    9.8135   -1.3635   15.3605 H   0  0  0  0  0  0  0  0  0  0  0  0
    8.0452   -2.8804   13.3927 H   0  0  0  0  0  0  0  0  0  0  0  0
    6.0315   -0.9031   12.6854 H   0  0  0  0  0  0  0  0  0  0  0  0
    3.5064   -0.9541   11.6589 H   0  0  0  0  0  0  0  0  0  0  0  0
    1.8829   -0.4554   10.1104 H   0  0  0  0  0  0  0  0  0  0  0  0
    1.4669   -0.8233   11.8678 H   0  0  0  0  0  0  0  0  0  0  0  0
    0.5270   -1.8865    9.4199 H   0  0  0  0  0  0  0  0  0  0  0  0
   -1.2619   -1.5056    7.4178 H   0  0  0  0  0  0  0  0  0  0  0  0
   -2.1536   -2.4646    8.6812 H   0  0  0  0  0  0  0  0  0  0  0  0
   -3.8216   -1.9882    8.0457 H   0  0  0  0  0  0  0  0  0  0  0  0
   -3.1772   -0.7337    7.0619 H   0  0  0  0  0  0  0  0  0  0  0  0
   -3.7500    0.6821    8.8924 H   0  0  0  0  0  0  0  0  0  0  0  0
   -4.0981   -0.6249    9.7912 H   0  0  0  0  0  0  0  0  0  0  0  0
   -1.5811    0.5934    8.7294 H   0  0  0  0  0  0  0  0  0  0  0  0
    4.4501    0.3935   10.9380 H   0  0  0  0  0  0  0  0  0  0  0  0
    7.2239   -0.3913   11.4574 H   0  0  0  0  0  0  0  0  0  0  0  0
    6.5116    0.2639    9.9573 H   0  0  0  0  0  0  0  0  0  0  0  0
    7.0924   -1.2120   10.0337 H   0  0  0  0  0  0  0  0  0  0  0  0
    5.0023   -3.1956   14.9548 H   0  0  0  0  0  0  0  0  0  0  0  0
    6.7979   -1.5805   16.0173 H   0  0  0  0  0  0  0  0  0  0  0  0
  1  2  1  0
  2  3  1  0
  3  4  1  0
  4  5  2  0
  5  6  1  0
  6  7  2  0
  7  8  1  0
  8  9  1  0
  9 10  1  0
 10 11  1  0
 11 12  1  0
 12 13  1  0
 13 14  1  0
  8 15  1  0
 15 16  1  0
  7 17  1  0
 17 18  2  0
 18  4  1  0
 14 10  1  0
  1 19  1  0
  1 20  1  0
  1 21  1  0
  2 22  1  0
  2 23  1  0
  3 24  1  0
  3 25  1  0
  5 26  1  0
  6 27  1  0
  8 28  1  0
  9 29  1  0
  9 30  1  0
 10 31  1  0
 11 32  1  0
 11 33  1  0
 12 34  1  0
 12 35  1  0
 13 36  1  0
 13 37  1  0
 14 38  1  0
 15 39  1  0
 16 40  1  0
 16 41  1  0
 16 42  1  0
 17 43  1  0
 18 44  1  0
M  END
>  <Energy>  (39) 
1333.8845810196615

>  <compound_id>  (39) 
4663

>  <target_id>  (39) 
1

>  <reference_id>  (39) 
93

>  <inspiration_ids>  (39) 
[93, 95]

>  <energy_score>  (39) 
1266.184153526947

>  <distance_score>  (39) 
7.926947274033858

>  <path>  (39) 
/opt/xchem-fragalysis-2/maxwin/BulkDock/SCRATCH/511018/C4663-P93/C4663-P93.minimised.mol

>  <scratch_subdir>  (39) 
/opt/xchem-fragalysis-2/maxwin/BulkDock/SCRATCH/511018/C4663-P93

>  <fragmenstein_runtime>  (39) 
9.845456600189209

>  <fragmenstein_outcome>  (39) 
too moved

>  <fragmenstein_mode>  (39) 
expansion

>  <fragmenstein_error>  (39) 


$$$$
C4663-P95
     RDKit          3D

 44 45  0  0  0  0  0  0  0  0999 V2000
   12.5174   -2.5431   14.3847 C   0  0  0  0  0  0  0  0  0  0  0  0
   11.9594   -1.7756   15.5792 C   0  0  0  0  0  0  0  0  0  0  0  0
   10.8666   -0.7664   15.2018 C   0  0  0  0  0  0  0  0  0  0  0  0
    9.4465   -1.2166   15.3217 C   0  0  0  0  0  0  0  0  0  0  0  0
    8.4095   -0.4708   15.7219 C   0  0  0  0  0  0  0  0  0  0  0  0
    7.0650   -0.8120   15.2263 C   0  0  0  0  0  0  0  0  0  0  0  0
    6.4785   -1.6228   13.9639 C   0  0  0  0  0  0  0  0  0  0  0  0
    5.6619   -1.1813   12.1633 C   0  0  0  0  0  0  0  0  0  0  0  0
    3.6927   -1.0865   11.1348 C   0  0  0  0  0  0  0  0  0  0  0  0
    1.7006   -1.4391   10.2906 C   0  0  0  0  0  0  0  0  0  0  0  0
   -0.1932   -1.1637   10.6025 C   0  0  0  0  0  0  0  0  0  0  0  0
   -1.8278   -1.0333    9.2837 C   0  0  0  0  0  0  0  0  0  0  0  0
   -1.4369   -1.7904    8.2981 C   0  0  0  0  0  0  0  0  0  0  0  0
    0.5224   -2.1806    8.7996 N   0  0  0  0  0  0  0  0  0  0  0  0
    7.0173   -0.9771   11.4757 N   0  0  0  0  0  0  0  0  0  0  0  0
    7.9367   -0.1387   12.2765 C   0  0  0  0  0  0  0  0  0  0  0  0
    7.6593   -2.3395   14.0108 C   0  0  0  0  0  0  0  0  0  0  0  0
    8.9746   -2.3515   14.7618 C   0  0  0  0  0  0  0  0  0  0  0  0
   12.9384   -1.8561   13.6432 H   0  0  0  0  0  0  0  0  0  0  0  0
   11.7606   -3.1529   13.8876 H   0  0  0  0  0  0  0  0  0  0  0  0
   13.3194   -3.2122   14.7131 H   0  0  0  0  0  0  0  0  0  0  0  0
   12.8029   -1.2247   16.0119 H   0  0  0  0  0  0  0  0  0  0  0  0
   11.6120   -2.4766   16.3445 H   0  0  0  0  0  0  0  0  0  0  0  0
   11.0263   -0.4362   14.1663 H   0  0  0  0  0  0  0  0  0  0  0  0
   10.9795    0.1534   15.7778 H   0  0  0  0  0  0  0  0  0  0  0  0
    8.5413    0.4258   16.3246 H   0  0  0  0  0  0  0  0  0  0  0  0
    6.5331   -0.0701   15.8443 H   0  0  0  0  0  0  0  0  0  0  0  0
    5.5787   -0.1952   12.5217 H   0  0  0  0  0  0  0  0  0  0  0  0
    2.9904   -0.1229   11.4034 H   0  0  0  0  0  0  0  0  0  0  0  0
    4.2275   -0.1086   10.7228 H   0  0  0  0  0  0  0  0  0  0  0  0
    1.5916   -1.9822   11.1733 H   0  0  0  0  0  0  0  0  0  0  0  0
   -0.4503   -0.8456   11.6216 H   0  0  0  0  0  0  0  0  0  0  0  0
    0.1797   -0.6062    9.7940 H   0  0  0  0  0  0  0  0  0  0  0  0
   -2.1755   -0.0559    8.8638 H   0  0  0  0  0  0  0  0  0  0  0  0
   -2.8735   -1.4222    9.1879 H   0  0  0  0  0  0  0  0  0  0  0  0
   -2.2220   -2.5954    8.2159 H   0  0  0  0  0  0  0  0  0  0  0  0
   -1.5557   -1.3894    7.2411 H   0  0  0  0  0  0  0  0  0  0  0  0
    0.9971   -1.6339    8.0583 H   0  0  0  0  0  0  0  0  0  0  0  0
    6.8026   -0.3615   10.6863 H   0  0  0  0  0  0  0  0  0  0  0  0
    8.6875    0.5499   11.9042 H   0  0  0  0  0  0  0  0  0  0  0  0
    8.3284   -0.3206   13.2656 H   0  0  0  0  0  0  0  0  0  0  0  0
    7.2814    0.4472   12.6761 H   0  0  0  0  0  0  0  0  0  0  0  0
    7.9653   -2.4613   13.0174 H   0  0  0  0  0  0  0  0  0  0  0  0
    9.7382   -3.0834   14.5339 H   0  0  0  0  0  0  0  0  0  0  0  0
  1  2  1  0
  2  3  1  0
  3  4  1  0
  4  5  2  0
  5  6  1  0
  6  7  2  0
  7  8  1  0
  8  9  1  0
  9 10  1  0
 10 11  1  0
 11 12  1  0
 12 13  1  0
 13 14  1  0
  8 15  1  0
 15 16  1  0
  7 17  1  0
 17 18  2  0
 18  4  1  0
 14 10  1  0
  1 19  1  0
  1 20  1  0
  1 21  1  0
  2 22  1  0
  2 23  1  0
  3 24  1  0
  3 25  1  0
  5 26  1  0
  6 27  1  0
  8 28  1  0
  9 29  1  0
  9 30  1  0
 10 31  1  0
 11 32  1  0
 11 33  1  0
 12 34  1  0
 12 35  1  0
 13 36  1  0
 13 37  1  0
 14 38  1  0
 15 39  1  0
 16 40  1  0
 16 41  1  0
 16 42  1  0
 17 43  1  0
 18 44  1  0
M  END
>  <Energy>  (40) 
1233.8677947481226

>  <compound_id>  (40) 
4663

>  <target_id>  (40) 
1

>  <reference_id>  (40) 
95

>  <inspiration_ids>  (40) 
[93, 95]

>  <energy_score>  (40) 
1166.1673672554093

>  <distance_score>  (40) 
7.427411044414928

>  <path>  (40) 
/opt/xchem-fragalysis-2/maxwin/BulkDock/SCRATCH/511018/C4663-P95/C4663-P95.minimised.mol

>  <scratch_subdir>  (40) 
/opt/xchem-fragalysis-2/maxwin/BulkDock/SCRATCH/511018/C4663-P95

>  <fragmenstein_runtime>  (40) 
9.721978664398193

>  <fragmenstein_outcome>  (40) 
too moved

>  <fragmenstein_mode>  (40) 
expansion

>  <fragmenstein_error>  (40) 


$$$$
C4664-P93
     RDKit          3D

 38 39  0  0  0  0  0  0  0  0999 V2000
    4.4691    1.8194    9.3859 C   0  0  0  0  0  0  0  0  0  0  0  0
    3.8545    1.4774   10.6573 N   0  0  0  0  0  0  0  0  0  0  0  0
    3.7677   -0.0224   11.2164 C   0  0  0  0  0  0  0  0  0  0  0  0
    1.7941   -0.8545   10.6627 C   0  0  0  0  0  0  0  0  0  0  0  0
   -0.1841   -1.0204   10.0328 C   0  0  0  0  0  0  0  0  0  0  0  0
   -1.7475   -1.4079    8.6440 C   0  0  0  0  0  0  0  0  0  0  0  0
   -3.3705   -0.7643    8.7186 C   0  0  0  0  0  0  0  0  0  0  0  0
   -3.0353    0.3290    9.6196 C   0  0  0  0  0  0  0  0  0  0  0  0
   -1.7502   -0.1623    9.1377 N   0  0  0  0  0  0  0  0  0  0  0  0
    5.6245   -0.7631   12.0091 C   0  0  0  0  0  0  0  0  0  0  0  0
    5.9176   -2.1545   12.5518 C   0  0  0  0  0  0  0  0  0  0  0  0
    6.2254   -2.5558   14.0230 C   0  0  0  0  0  0  0  0  0  0  0  0
    7.2942   -2.2848   14.7048 C   0  0  0  0  0  0  0  0  0  0  0  0
    7.8397   -1.3500   14.0164 C   0  0  0  0  0  0  0  0  0  0  0  0
    7.2325   -0.5932   12.7259 C   0  0  0  0  0  0  0  0  0  0  0  0
    8.7597    0.3287   13.1157 C   0  0  0  0  0  0  0  0  0  0  0  0
    3.8085    1.6239    8.5406 H   0  0  0  0  0  0  0  0  0  0  0  0
    5.4605    1.4080    9.2053 H   0  0  0  0  0  0  0  0  0  0  0  0
    4.6054    2.9082    9.3733 H   0  0  0  0  0  0  0  0  0  0  0  0
    4.4990    1.8701   11.3508 H   0  0  0  0  0  0  0  0  0  0  0  0
    3.1285    0.5431   11.9680 H   0  0  0  0  0  0  0  0  0  0  0  0
    1.7800   -0.2216    9.7491 H   0  0  0  0  0  0  0  0  0  0  0  0
    1.9760   -1.9302   10.5111 H   0  0  0  0  0  0  0  0  0  0  0  0
    0.4916   -1.8356    9.4906 H   0  0  0  0  0  0  0  0  0  0  0  0
   -1.5235   -1.3190    7.5225 H   0  0  0  0  0  0  0  0  0  0  0  0
   -2.2303   -2.3903    8.6542 H   0  0  0  0  0  0  0  0  0  0  0  0
   -4.1199   -1.4607    9.0822 H   0  0  0  0  0  0  0  0  0  0  0  0
   -3.6930   -0.5252    7.7003 H   0  0  0  0  0  0  0  0  0  0  0  0
   -3.2862    1.3230    9.2789 H   0  0  0  0  0  0  0  0  0  0  0  0
   -3.1853    0.4127   10.6951 H   0  0  0  0  0  0  0  0  0  0  0  0
   -1.4801    0.6895    8.6615 H   0  0  0  0  0  0  0  0  0  0  0  0
    5.1454   -2.9580   12.3066 H   0  0  0  0  0  0  0  0  0  0  0  0
    5.4764   -3.0890   14.5890 H   0  0  0  0  0  0  0  0  0  0  0  0
    7.6902   -2.7266   15.5631 H   0  0  0  0  0  0  0  0  0  0  0  0
    8.8159   -1.1767   14.4902 H   0  0  0  0  0  0  0  0  0  0  0  0
    9.1114    1.2136   12.6358 H   0  0  0  0  0  0  0  0  0  0  0  0
    9.7516   -0.1220   13.0632 H   0  0  0  0  0  0  0  0  0  0  0  0
    8.8092    0.5707   14.2055 H   0  0  0  0  0  0  0  0  0  0  0  0
  1  2  1  0
  2  3  1  0
  3  4  1  0
  4  5  1  0
  5  6  1  0
  6  7  1  0
  7  8  1  0
  8  9  1  0
  3 10  1  0
 10 11  2  0
 11 12  1  0
 12 13  2  0
 13 14  1  0
 14 15  2  0
 15 16  1  0
  9  5  1  0
 15 10  1  0
  1 17  1  0
  1 18  1  0
  1 19  1  0
  2 20  1  0
  3 21  1  0
  4 22  1  0
  4 23  1  0
  5 24  1  0
  6 25  1  0
  6 26  1  0
  7 27  1  0
  7 28  1  0
  8 29  1  0
  8 30  1  0
  9 31  1  0
 11 32  1  0
 12 33  1  0
 13 34  1  0
 14 35  1  0
 16 36  1  0
 16 37  1  0
 16 38  1  0
M  END
>  <Energy>  (41) 
1277.3588652136887

>  <compound_id>  (41) 
4664

>  <target_id>  (41) 
1

>  <reference_id>  (41) 
93

>  <inspiration_ids>  (41) 
[93, 95]

>  <energy_score>  (41) 
1205.1517653457995

>  <distance_score>  (41) 
8.07852619665614

>  <path>  (41) 
/opt/xchem-fragalysis-2/maxwin/BulkDock/SCRATCH/511018/C4664-P93/C4664-P93.minimised.mol

>  <scratch_subdir>  (41) 
/opt/xchem-fragalysis-2/maxwin/BulkDock/SCRATCH/511018/C4664-P93

>  <fragmenstein_runtime>  (41) 
7.384652137756348

>  <fragmenstein_outcome>  (41) 
too moved

>  <fragmenstein_mode>  (41) 
expansion

>  <fragmenstein_error>  (41) 


$$$$
C4664-P95
     RDKit          3D

 38 39  0  0  0  0  0  0  0  0999 V2000
    6.9463   -0.8874   11.2159 C   0  0  0  0  0  0  0  0  0  0  0  0
    5.6678   -0.8707   11.9650 N   0  0  0  0  0  0  0  0  0  0  0  0
    4.2390   -2.2201   11.6532 C   0  0  0  0  0  0  0  0  0  0  0  0
    2.1307   -1.7533   10.9607 C   0  0  0  0  0  0  0  0  0  0  0  0
    0.2759   -1.3101    9.7685 C   0  0  0  0  0  0  0  0  0  0  0  0
   -1.5692   -1.7923    8.6451 C   0  0  0  0  0  0  0  0  0  0  0  0
   -3.1583   -1.0228    8.2199 C   0  0  0  0  0  0  0  0  0  0  0  0
   -2.9439   -0.0340    9.2209 C   0  0  0  0  0  0  0  0  0  0  0  0
   -1.6152   -1.0275    9.1550 N   0  0  0  0  0  0  0  0  0  0  0  0
    5.8377   -2.3771   13.0947 C   0  0  0  0  0  0  0  0  0  0  0  0
    5.8399   -2.0985   14.4920 C   0  0  0  0  0  0  0  0  0  0  0  0
    6.8621   -1.0427   15.5228 C   0  0  0  0  0  0  0  0  0  0  0  0
    7.9905   -0.3239   15.3111 C   0  0  0  0  0  0  0  0  0  0  0  0
    8.1407   -0.5448   14.0201 C   0  0  0  0  0  0  0  0  0  0  0  0
    7.4234   -1.8345   13.3821 C   0  0  0  0  0  0  0  0  0  0  0  0
    8.5250   -2.7132   14.5422 C   0  0  0  0  0  0  0  0  0  0  0  0
    7.6009   -0.2636   11.7828 H   0  0  0  0  0  0  0  0  0  0  0  0
    7.3007   -1.8885   11.0960 H   0  0  0  0  0  0  0  0  0  0  0  0
    6.9290   -0.3932   10.2374 H   0  0  0  0  0  0  0  0  0  0  0  0
    5.2507   -0.0268   11.5520 H   0  0  0  0  0  0  0  0  0  0  0  0
    3.9665   -1.2011   11.2393 H   0  0  0  0  0  0  0  0  0  0  0  0
    2.6652   -2.0469   10.0654 H   0  0  0  0  0  0  0  0  0  0  0  0
    2.2070   -0.7080   11.2569 H   0  0  0  0  0  0  0  0  0  0  0  0
    0.8752   -1.7642    8.9556 H   0  0  0  0  0  0  0  0  0  0  0  0
   -1.5388   -1.6057    7.3443 H   0  0  0  0  0  0  0  0  0  0  0  0
   -2.2782   -2.7266    8.7559 H   0  0  0  0  0  0  0  0  0  0  0  0
   -3.1859   -0.7386    7.1663 H   0  0  0  0  0  0  0  0  0  0  0  0
   -3.9827   -1.7155    8.4117 H   0  0  0  0  0  0  0  0  0  0  0  0
   -2.7715    0.9794    8.8907 H   0  0  0  0  0  0  0  0  0  0  0  0
   -3.8079   -0.0619    9.8906 H   0  0  0  0  0  0  0  0  0  0  0  0
   -1.3473   -0.2097    8.5643 H   0  0  0  0  0  0  0  0  0  0  0  0
    4.9996   -2.5098   15.0410 H   0  0  0  0  0  0  0  0  0  0  0  0
    6.4487   -0.7741   16.5208 H   0  0  0  0  0  0  0  0  0  0  0  0
    8.4591    0.4019   15.9436 H   0  0  0  0  0  0  0  0  0  0  0  0
    8.7994    0.1067   13.4567 H   0  0  0  0  0  0  0  0  0  0  0  0
    8.7724   -3.7564   14.6059 H   0  0  0  0  0  0  0  0  0  0  0  0
    8.1074   -2.6494   15.5142 H   0  0  0  0  0  0  0  0  0  0  0  0
    9.5236   -2.2434   14.5163 H   0  0  0  0  0  0  0  0  0  0  0  0
  1  2  1  0
  2  3  1  0
  3  4  1  0
  4  5  1  0
  5  6  1  0
  6  7  1  0
  7  8  1  0
  8  9  1  0
  3 10  1  0
 10 11  2  0
 11 12  1  0
 12 13  2  0
 13 14  1  0
 14 15  2  0
 15 16  1  0
  9  5  1  0
 15 10  1  0
  1 17  1  0
  1 18  1  0
  1 19  1  0
  2 20  1  0
  3 21  1  0
  4 22  1  0
  4 23  1  0
  5 24  1  0
  6 25  1  0
  6 26  1  0
  7 27  1  0
  7 28  1  0
  8 29  1  0
  8 30  1  0
  9 31  1  0
 11 32  1  0
 12 33  1  0
 13 34  1  0
 14 35  1  0
 16 36  1  0
 16 37  1  0
 16 38  1  0
M  END
>  <Energy>  (42) 
1837.35573821399

>  <compound_id>  (42) 
4664

>  <target_id>  (42) 
1

>  <reference_id>  (42) 
95

>  <inspiration_ids>  (42) 
[93, 95]

>  <energy_score>  (42) 
1765.1486383461024

>  <distance_score>  (42) 
7.500316981262822

>  <path>  (42) 
/opt/xchem-fragalysis-2/maxwin/BulkDock/SCRATCH/511018/C4664-P95/C4664-P95.minimised.mol

>  <scratch_subdir>  (42) 
/opt/xchem-fragalysis-2/maxwin/BulkDock/SCRATCH/511018/C4664-P95

>  <fragmenstein_runtime>  (42) 
6.5385661125183105

>  <fragmenstein_outcome>  (42) 
too moved

>  <fragmenstein_mode>  (42) 
expansion

>  <fragmenstein_error>  (42) 


$$$$
C4665-P93
     RDKit          3D

 42 43  0  0  0  0  0  0  0  0999 V2000
   10.4805    0.5580   14.2372 C   0  0  0  0  0  0  0  0  0  0  0  0
    9.9348   -0.5894   15.0639 C   0  0  0  0  0  0  0  0  0  0  0  0
    8.5201   -0.4884   15.2281 O   0  0  0  0  0  0  0  0  0  0  0  0
    7.7710   -1.3192   14.5137 C   0  0  0  0  0  0  0  0  0  0  0  0
    7.5234   -1.5458   13.2485 C   0  0  0  0  0  0  0  0  0  0  0  0
    6.3384   -2.0633   12.4152 C   0  0  0  0  0  0  0  0  0  0  0  0
    5.0314   -2.9157   12.4825 C   0  0  0  0  0  0  0  0  0  0  0  0
    3.5172   -2.0353   11.3958 C   0  0  0  0  0  0  0  0  0  0  0  0
    1.6082   -1.6458   10.3789 C   0  0  0  0  0  0  0  0  0  0  0  0
   -0.3341   -1.0330   10.0135 C   0  0  0  0  0  0  0  0  0  0  0  0
   -1.8452   -1.4892    8.6336 C   0  0  0  0  0  0  0  0  0  0  0  0
   -3.4030   -0.8896    8.6408 C   0  0  0  0  0  0  0  0  0  0  0  0
   -3.1544    0.2452    9.5017 C   0  0  0  0  0  0  0  0  0  0  0  0
   -1.8127   -0.0834    9.0858 N   0  0  0  0  0  0  0  0  0  0  0  0
    4.7361   -0.5399   11.1196 N   0  0  0  0  0  0  0  0  0  0  0  0
    6.4139   -0.4975   10.6179 C   0  0  0  0  0  0  0  0  0  0  0  0
    5.6132   -2.7935   14.1523 C   0  0  0  0  0  0  0  0  0  0  0  0
    6.7720   -2.0247   14.9627 C   0  0  0  0  0  0  0  0  0  0  0  0
   11.5637    0.4678   14.1165 H   0  0  0  0  0  0  0  0  0  0  0  0
   10.2654    1.5138   14.7268 H   0  0  0  0  0  0  0  0  0  0  0  0
   10.0184    0.6020   13.2515 H   0  0  0  0  0  0  0  0  0  0  0  0
   10.3667   -0.4833   16.0628 H   0  0  0  0  0  0  0  0  0  0  0  0
   10.2612   -1.5770   14.7250 H   0  0  0  0  0  0  0  0  0  0  0  0
    8.0218   -2.5488   13.2690 H   0  0  0  0  0  0  0  0  0  0  0  0
    6.9310   -2.3376   11.5261 H   0  0  0  0  0  0  0  0  0  0  0  0
    2.9751   -0.8593   11.6757 H   0  0  0  0  0  0  0  0  0  0  0  0
    1.5211   -2.2080    9.4665 H   0  0  0  0  0  0  0  0  0  0  0  0
    1.7475   -0.6098   10.0796 H   0  0  0  0  0  0  0  0  0  0  0  0
   -0.8572   -1.1948   10.9893 H   0  0  0  0  0  0  0  0  0  0  0  0
   -1.5537   -1.3783    7.5543 H   0  0  0  0  0  0  0  0  0  0  0  0
   -2.2954   -2.4766    8.6496 H   0  0  0  0  0  0  0  0  0  0  0  0
   -3.6950   -0.6595    7.6077 H   0  0  0  0  0  0  0  0  0  0  0  0
   -4.1743   -1.5537    9.0068 H   0  0  0  0  0  0  0  0  0  0  0  0
   -3.2989    0.3787   10.5700 H   0  0  0  0  0  0  0  0  0  0  0  0
   -3.5995    1.1406    9.0981 H   0  0  0  0  0  0  0  0  0  0  0  0
   -1.5072    0.8157    8.7556 H   0  0  0  0  0  0  0  0  0  0  0  0
    4.3070    0.3687   10.9408 H   0  0  0  0  0  0  0  0  0  0  0  0
    6.9664   -1.1119    9.9305 H   0  0  0  0  0  0  0  0  0  0  0  0
    6.4392    0.3859    9.9355 H   0  0  0  0  0  0  0  0  0  0  0  0
    7.1179   -0.3855   11.4300 H   0  0  0  0  0  0  0  0  0  0  0  0
    4.9845   -3.2165   14.9241 H   0  0  0  0  0  0  0  0  0  0  0  0
    6.7512   -1.6568   15.9612 H   0  0  0  0  0  0  0  0  0  0  0  0
  1  2  1  0
  2  3  1  0
  3  4  1  0
  4  5  2  0
  5  6  1  0
  6  7  2  0
  7  8  1  0
  8  9  1  0
  9 10  1  0
 10 11  1  0
 11 12  1  0
 12 13  1  0
 13 14  1  0
  8 15  1  0
 15 16  1  0
  7 17  1  0
 17 18  2  0
 18  4  1  0
 14 10  1  0
  1 19  1  0
  1 20  1  0
  1 21  1  0
  2 22  1  0
  2 23  1  0
  5 24  1  0
  6 25  1  0
  8 26  1  0
  9 27  1  0
  9 28  1  0
 10 29  1  0
 11 30  1  0
 11 31  1  0
 12 32  1  0
 12 33  1  0
 13 34  1  0
 13 35  1  0
 14 36  1  0
 15 37  1  0
 16 38  1  0
 16 39  1  0
 16 40  1  0
 17 41  1  0
 18 42  1  0
M  END
>  <Energy>  (43) 
1260.4384267576761

>  <compound_id>  (43) 
4665

>  <target_id>  (43) 
1

>  <reference_id>  (43) 
93

>  <inspiration_ids>  (43) 
[93, 95]

>  <energy_score>  (43) 
1196.925398567454

>  <distance_score>  (43) 
8.044294861400257

>  <path>  (43) 
/opt/xchem-fragalysis-2/maxwin/BulkDock/SCRATCH/511018/C4665-P93/C4665-P93.minimised.mol

>  <scratch_subdir>  (43) 
/opt/xchem-fragalysis-2/maxwin/BulkDock/SCRATCH/511018/C4665-P93

>  <fragmenstein_runtime>  (43) 
11.24584412574768

>  <fragmenstein_outcome>  (43) 
too moved

>  <fragmenstein_mode>  (43) 
expansion

>  <fragmenstein_error>  (43) 


$$$$
C4665-P95
     RDKit          3D

 42 43  0  0  0  0  0  0  0  0999 V2000
   11.3290   -0.0275   14.6893 C   0  0  0  0  0  0  0  0  0  0  0  0
   10.0139    0.4541   15.2839 C   0  0  0  0  0  0  0  0  0  0  0  0
    9.4278   -0.5489   16.1368 O   0  0  0  0  0  0  0  0  0  0  0  0
    8.4548   -1.1899   15.4958 C   0  0  0  0  0  0  0  0  0  0  0  0
    8.5427   -2.2363   14.7129 C   0  0  0  0  0  0  0  0  0  0  0  0
    7.2852   -2.5495   13.8028 C   0  0  0  0  0  0  0  0  0  0  0  0
    5.7034   -2.5568   13.4120 C   0  0  0  0  0  0  0  0  0  0  0  0
    4.2415   -2.5513   11.8207 C   0  0  0  0  0  0  0  0  0  0  0  0
    2.2686   -1.8543   10.9296 C   0  0  0  0  0  0  0  0  0  0  0  0
    0.4015   -1.4354    9.7110 C   0  0  0  0  0  0  0  0  0  0  0  0
   -1.7030   -1.2432    9.2951 C   0  0  0  0  0  0  0  0  0  0  0  0
   -3.1407   -1.7781    8.4055 C   0  0  0  0  0  0  0  0  0  0  0  0
   -2.3775   -1.1542    7.4619 C   0  0  0  0  0  0  0  0  0  0  0  0
   -1.1875   -1.8022    8.3915 N   0  0  0  0  0  0  0  0  0  0  0  0
    5.9755   -2.2066   11.6827 N   0  0  0  0  0  0  0  0  0  0  0  0
    6.6632   -0.9316   11.6583 C   0  0  0  0  0  0  0  0  0  0  0  0
    6.0693   -1.6431   14.3618 C   0  0  0  0  0  0  0  0  0  0  0  0
    7.1690   -0.8911   15.4483 C   0  0  0  0  0  0  0  0  0  0  0  0
   12.0240   -0.3548   15.4662 H   0  0  0  0  0  0  0  0  0  0  0  0
   11.8023    0.7703   14.1097 H   0  0  0  0  0  0  0  0  0  0  0  0
   11.1803   -0.8875   14.0327 H   0  0  0  0  0  0  0  0  0  0  0  0
    9.3333    0.7855   14.4877 H   0  0  0  0  0  0  0  0  0  0  0  0
   10.2044    1.3292   15.9147 H   0  0  0  0  0  0  0  0  0  0  0  0
    9.5357   -2.5888   14.4545 H   0  0  0  0  0  0  0  0  0  0  0  0
    7.8880   -2.3438   12.9291 H   0  0  0  0  0  0  0  0  0  0  0  0
    4.1908   -3.6379   11.6597 H   0  0  0  0  0  0  0  0  0  0  0  0
    2.3405   -0.7935   11.1852 H   0  0  0  0  0  0  0  0  0  0  0  0
    2.8448   -2.1593   10.0506 H   0  0  0  0  0  0  0  0  0  0  0  0
    1.0682   -0.6782    9.2571 H   0  0  0  0  0  0  0  0  0  0  0  0
   -2.2559   -2.1643    9.5929 H   0  0  0  0  0  0  0  0  0  0  0  0
   -2.3673   -0.2360    9.3342 H   0  0  0  0  0  0  0  0  0  0  0  0
   -4.0661   -1.2654    8.6920 H   0  0  0  0  0  0  0  0  0  0  0  0
   -3.2679   -2.8478    8.1802 H   0  0  0  0  0  0  0  0  0  0  0  0
   -2.6532   -1.5935    6.5159 H   0  0  0  0  0  0  0  0  0  0  0  0
   -2.4307   -0.0962    7.5347 H   0  0  0  0  0  0  0  0  0  0  0  0
   -0.7645   -1.3229    7.4670 H   0  0  0  0  0  0  0  0  0  0  0  0
    6.3597   -2.8191   10.9841 H   0  0  0  0  0  0  0  0  0  0  0  0
    7.0298   -0.6355   10.6879 H   0  0  0  0  0  0  0  0  0  0  0  0
    7.4317   -0.6393   12.3600 H   0  0  0  0  0  0  0  0  0  0  0  0
    5.7934   -0.4368   11.9646 H   0  0  0  0  0  0  0  0  0  0  0  0
    5.5776   -0.8307   13.9491 H   0  0  0  0  0  0  0  0  0  0  0  0
    6.8145   -0.0707   16.0741 H   0  0  0  0  0  0  0  0  0  0  0  0
  1  2  1  0
  2  3  1  0
  3  4  1  0
  4  5  2  0
  5  6  1  0
  6  7  2  0
  7  8  1  0
  8  9  1  0
  9 10  1  0
 10 11  1  0
 11 12  1  0
 12 13  1  0
 13 14  1  0
  8 15  1  0
 15 16  1  0
  7 17  1  0
 17 18  2  0
 18  4  1  0
 14 10  1  0
  1 19  1  0
  1 20  1  0
  1 21  1  0
  2 22  1  0
  2 23  1  0
  5 24  1  0
  6 25  1  0
  8 26  1  0
  9 27  1  0
  9 28  1  0
 10 29  1  0
 11 30  1  0
 11 31  1  0
 12 32  1  0
 12 33  1  0
 13 34  1  0
 13 35  1  0
 14 36  1  0
 15 37  1  0
 16 38  1  0
 16 39  1  0
 16 40  1  0
 17 41  1  0
 18 42  1  0
M  END
>  <Energy>  (44) 
1747.6817070006398

>  <compound_id>  (44) 
4665

>  <target_id>  (44) 
1

>  <reference_id>  (44) 
95

>  <inspiration_ids>  (44) 
[93, 95]

>  <energy_score>  (44) 
1684.1686788104093

>  <distance_score>  (44) 
7.601307474213964

>  <path>  (44) 
/opt/xchem-fragalysis-2/maxwin/BulkDock/SCRATCH/511018/C4665-P95/C4665-P95.minimised.mol

>  <scratch_subdir>  (44) 
/opt/xchem-fragalysis-2/maxwin/BulkDock/SCRATCH/511018/C4665-P95

>  <fragmenstein_runtime>  (44) 
10.292579412460327

>  <fragmenstein_outcome>  (44) 
too moved

>  <fragmenstein_mode>  (44) 
expansion

>  <fragmenstein_error>  (44) 


$$$$
C4666-P93
     RDKit          3D

 35 36  0  0  0  0  0  0  0  0999 V2000
    3.6505    1.8912    9.9338 C   0  0  0  0  0  0  0  0  0  0  0  0
    3.2852    1.3988   11.2509 N   0  0  0  0  0  0  0  0  0  0  0  0
    2.9200   -0.1640   11.3940 C   0  0  0  0  0  0  0  0  0  0  0  0
    1.1190   -0.8249   10.2634 C   0  0  0  0  0  0  0  0  0  0  0  0
   -0.9918   -0.8782    9.5730 C   0  0  0  0  0  0  0  0  0  0  0  0
   -2.5242    0.2831    9.5268 C   0  0  0  0  0  0  0  0  0  0  0  0
   -3.7717   -0.3279    8.9034 C   0  0  0  0  0  0  0  0  0  0  0  0
   -3.2381   -1.3543    8.0135 C   0  0  0  0  0  0  0  0  0  0  0  0
   -1.8234   -1.5380    8.2458 N   0  0  0  0  0  0  0  0  0  0  0  0
    4.9893   -0.6912   11.5892 C   0  0  0  0  0  0  0  0  0  0  0  0
    5.8110   -0.5554   12.8086 C   0  0  0  0  0  0  0  0  0  0  0  0
    5.9542   -1.1818   14.4656 C   0  0  0  0  0  0  0  0  0  0  0  0
    7.1074   -1.3463   14.9047 C   0  0  0  0  0  0  0  0  0  0  0  0
    7.3742   -1.9601   13.7698 C   0  0  0  0  0  0  0  0  0  0  0  0
    9.0311   -2.5845   14.6958 Br  0  0  0  0  0  0  0  0  0  0  0  0
    6.3407   -1.7433   12.2600 C   0  0  0  0  0  0  0  0  0  0  0  0
    4.5093    1.3923    9.4874 H   0  0  0  0  0  0  0  0  0  0  0  0
    2.8021    1.8578    9.2458 H   0  0  0  0  0  0  0  0  0  0  0  0
    3.9206    2.9492   10.0246 H   0  0  0  0  0  0  0  0  0  0  0  0
    4.1438    1.5059   11.8009 H   0  0  0  0  0  0  0  0  0  0  0  0
    2.3862   -0.0479   12.3613 H   0  0  0  0  0  0  0  0  0  0  0  0
    1.5105   -0.1943    9.4755 H   0  0  0  0  0  0  0  0  0  0  0  0
    1.3916   -1.8270   10.0257 H   0  0  0  0  0  0  0  0  0  0  0  0
   -1.1479   -1.2491   10.6993 H   0  0  0  0  0  0  0  0  0  0  0  0
   -2.8259    0.6027   10.5426 H   0  0  0  0  0  0  0  0  0  0  0  0
   -2.2929    1.2195    9.0527 H   0  0  0  0  0  0  0  0  0  0  0  0
   -4.4462   -0.7575    9.6305 H   0  0  0  0  0  0  0  0  0  0  0  0
   -4.4093    0.3922    8.3851 H   0  0  0  0  0  0  0  0  0  0  0  0
   -3.4170   -0.9930    7.0029 H   0  0  0  0  0  0  0  0  0  0  0  0
   -3.7637   -2.3015    8.0445 H   0  0  0  0  0  0  0  0  0  0  0  0
   -1.3434   -1.1036    7.4626 H   0  0  0  0  0  0  0  0  0  0  0  0
    6.9182   -0.1431   12.6393 H   0  0  0  0  0  0  0  0  0  0  0  0
    5.2211   -1.7395   15.0297 H   0  0  0  0  0  0  0  0  0  0  0  0
    7.4307   -1.2813   15.9016 H   0  0  0  0  0  0  0  0  0  0  0  0
    7.0891   -1.9646   11.4631 H   0  0  0  0  0  0  0  0  0  0  0  0
  1  2  1  0
  2  3  1  0
  3  4  1  0
  4  5  1  0
  5  6  1  0
  6  7  1  0
  7  8  1  0
  8  9  1  0
  3 10  1  0
 10 11  2  0
 11 12  1  0
 12 13  2  0
 13 14  1  0
 14 15  1  0
 14 16  2  0
  9  5  1  0
 16 10  1  0
  1 17  1  0
  1 18  1  0
  1 19  1  0
  2 20  1  0
  3 21  1  0
  4 22  1  0
  4 23  1  0
  5 24  1  0
  6 25  1  0
  6 26  1  0
  7 27  1  0
  7 28  1  0
  8 29  1  0
  8 30  1  0
  9 31  1  0
 11 32  1  0
 12 33  1  0
 13 34  1  0
 16 35  1  0
M  END
>  <Energy>  (45) 
1139.3699325552966

>  <compound_id>  (45) 
4666

>  <target_id>  (45) 
1

>  <reference_id>  (45) 
93

>  <inspiration_ids>  (45) 
[93, 95]

>  <energy_score>  (45) 
1097.7108731817734

>  <distance_score>  (45) 
8.176742454715916

>  <path>  (45) 
/opt/xchem-fragalysis-2/maxwin/BulkDock/SCRATCH/511018/C4666-P93/C4666-P93.minimised.mol

>  <scratch_subdir>  (45) 
/opt/xchem-fragalysis-2/maxwin/BulkDock/SCRATCH/511018/C4666-P93

>  <fragmenstein_runtime>  (45) 
5.821882486343384

>  <fragmenstein_outcome>  (45) 
too moved

>  <fragmenstein_mode>  (45) 
expansion

>  <fragmenstein_error>  (45) 


$$$$
C4666-P95
     RDKit          3D

 35 36  0  0  0  0  0  0  0  0999 V2000
    6.9314   -0.8818   11.1155 C   0  0  0  0  0  0  0  0  0  0  0  0
    6.1453   -2.0612   11.6087 N   0  0  0  0  0  0  0  0  0  0  0  0
    4.2687   -2.4035   11.7200 C   0  0  0  0  0  0  0  0  0  0  0  0
    2.2270   -1.8100   10.9288 C   0  0  0  0  0  0  0  0  0  0  0  0
    0.3418   -1.3774    9.7742 C   0  0  0  0  0  0  0  0  0  0  0  0
   -1.5182   -1.7881    8.6356 C   0  0  0  0  0  0  0  0  0  0  0  0
   -3.0979   -1.0250    8.1976 C   0  0  0  0  0  0  0  0  0  0  0  0
   -2.9092   -0.0469    9.2085 C   0  0  0  0  0  0  0  0  0  0  0  0
   -1.5597   -1.0571    9.1885 N   0  0  0  0  0  0  0  0  0  0  0  0
    5.8717   -2.1955   13.1528 C   0  0  0  0  0  0  0  0  0  0  0  0
    6.5360   -2.7859   14.2564 C   0  0  0  0  0  0  0  0  0  0  0  0
    7.8736   -2.5301   15.1729 C   0  0  0  0  0  0  0  0  0  0  0  0
    8.7553   -1.4911   15.1476 C   0  0  0  0  0  0  0  0  0  0  0  0
    8.2795   -0.6378   14.2587 C   0  0  0  0  0  0  0  0  0  0  0  0
    9.2702    0.9717   14.0337 Br  0  0  0  0  0  0  0  0  0  0  0  0
    6.9405   -1.0738   13.5149 C   0  0  0  0  0  0  0  0  0  0  0  0
    7.5095   -0.2515   11.7661 H   0  0  0  0  0  0  0  0  0  0  0  0
    7.6733   -1.4247   10.5991 H   0  0  0  0  0  0  0  0  0  0  0  0
    6.6289   -0.3181   10.2395 H   0  0  0  0  0  0  0  0  0  0  0  0
    6.4056   -2.8154   10.9846 H   0  0  0  0  0  0  0  0  0  0  0  0
    4.1149   -1.3485   11.4148 H   0  0  0  0  0  0  0  0  0  0  0  0
    2.7689   -2.1243   10.0354 H   0  0  0  0  0  0  0  0  0  0  0  0
    2.2874   -0.7549   11.2073 H   0  0  0  0  0  0  0  0  0  0  0  0
    1.0154   -0.6433    9.2936 H   0  0  0  0  0  0  0  0  0  0  0  0
   -1.4977   -1.5893    7.3313 H   0  0  0  0  0  0  0  0  0  0  0  0
   -2.2530   -2.7163    8.7410 H   0  0  0  0  0  0  0  0  0  0  0  0
   -3.1179   -0.7269    7.1484 H   0  0  0  0  0  0  0  0  0  0  0  0
   -3.9242   -1.7226    8.3695 H   0  0  0  0  0  0  0  0  0  0  0  0
   -2.7320    0.9640    8.8745 H   0  0  0  0  0  0  0  0  0  0  0  0
   -3.7894   -0.0744    9.8571 H   0  0  0  0  0  0  0  0  0  0  0  0
   -1.2701   -0.2271    8.6304 H   0  0  0  0  0  0  0  0  0  0  0  0
    7.5043   -2.9788   13.6753 H   0  0  0  0  0  0  0  0  0  0  0  0
    8.3461   -3.4909   15.3964 H   0  0  0  0  0  0  0  0  0  0  0  0
    9.7176   -1.4370   15.6223 H   0  0  0  0  0  0  0  0  0  0  0  0
    6.4716   -0.8077   14.5022 H   0  0  0  0  0  0  0  0  0  0  0  0
  1  2  1  0
  2  3  1  0
  3  4  1  0
  4  5  1  0
  5  6  1  0
  6  7  1  0
  7  8  1  0
  8  9  1  0
  3 10  1  0
 10 11  2  0
 11 12  1  0
 12 13  2  0
 13 14  1  0
 14 15  1  0
 14 16  2  0
  9  5  1  0
 16 10  1  0
  1 17  1  0
  1 18  1  0
  1 19  1  0
  2 20  1  0
  3 21  1  0
  4 22  1  0
  4 23  1  0
  5 24  1  0
  6 25  1  0
  6 26  1  0
  7 27  1  0
  7 28  1  0
  8 29  1  0
  8 30  1  0
  9 31  1  0
 11 32  1  0
 12 33  1  0
 13 34  1  0
 16 35  1  0
M  END
>  <Energy>  (46) 
1885.1271103848298

>  <compound_id>  (46) 
4666

>  <target_id>  (46) 
1

>  <reference_id>  (46) 
95

>  <inspiration_ids>  (46) 
[93, 95]

>  <energy_score>  (46) 
1843.4680510113174

>  <distance_score>  (46) 
7.474574341072373

>  <path>  (46) 
/opt/xchem-fragalysis-2/maxwin/BulkDock/SCRATCH/511018/C4666-P95/C4666-P95.minimised.mol

>  <scratch_subdir>  (46) 
/opt/xchem-fragalysis-2/maxwin/BulkDock/SCRATCH/511018/C4666-P95

>  <fragmenstein_runtime>  (46) 
7.315945148468018

>  <fragmenstein_outcome>  (46) 
too moved

>  <fragmenstein_mode>  (46) 
expansion

>  <fragmenstein_error>  (46) 


$$$$
C4668-P93
     RDKit          3D

 35 36  0  0  0  0  0  0  0  0999 V2000
    6.4246   -0.5280   10.6781 C   0  0  0  0  0  0  0  0  0  0  0  0
    4.8638   -0.5377   11.1029 N   0  0  0  0  0  0  0  0  0  0  0  0
    3.6953   -2.0094   11.4391 C   0  0  0  0  0  0  0  0  0  0  0  0
    1.7461   -1.2283   10.8415 C   0  0  0  0  0  0  0  0  0  0  0  0
   -0.1606   -1.0827    9.9831 C   0  0  0  0  0  0  0  0  0  0  0  0
   -1.6023   -1.5486    8.4736 C   0  0  0  0  0  0  0  0  0  0  0  0
   -3.0608   -1.1029    8.0181 C   0  0  0  0  0  0  0  0  0  0  0  0
   -3.2699   -0.2678    9.1348 C   0  0  0  0  0  0  0  0  0  0  0  0
   -1.7952   -0.2423    9.2458 N   0  0  0  0  0  0  0  0  0  0  0  0
    5.2123   -2.8468   12.5580 C   0  0  0  0  0  0  0  0  0  0  0  0
    6.4316   -2.0605   12.4380 C   0  0  0  0  0  0  0  0  0  0  0  0
    7.5899   -1.6984   13.2818 C   0  0  0  0  0  0  0  0  0  0  0  0
    7.9683   -1.5044   14.5294 C   0  0  0  0  0  0  0  0  0  0  0  0
    6.8991   -1.9932   15.0522 C   0  0  0  0  0  0  0  0  0  0  0  0
    6.7991   -1.2875   16.1882 F   0  0  0  0  0  0  0  0  0  0  0  0
    5.6900   -2.7221   14.2384 C   0  0  0  0  0  0  0  0  0  0  0  0
    7.1347   -0.3631   11.4834 H   0  0  0  0  0  0  0  0  0  0  0  0
    7.0073   -1.1522   10.0399 H   0  0  0  0  0  0  0  0  0  0  0  0
    6.3818    0.2993    9.9595 H   0  0  0  0  0  0  0  0  0  0  0  0
    4.4586    0.4023   11.0357 H   0  0  0  0  0  0  0  0  0  0  0  0
    3.5089   -0.9288   11.6584 H   0  0  0  0  0  0  0  0  0  0  0  0
    1.4570   -0.8939   11.8645 H   0  0  0  0  0  0  0  0  0  0  0  0
    1.8286   -2.1717   10.3524 H   0  0  0  0  0  0  0  0  0  0  0  0
    0.5049   -1.8837    9.3990 H   0  0  0  0  0  0  0  0  0  0  0  0
   -1.2411   -1.5165    7.4130 H   0  0  0  0  0  0  0  0  0  0  0  0
   -2.1650   -2.4528    8.6914 H   0  0  0  0  0  0  0  0  0  0  0  0
   -3.0412   -0.6555    7.0305 H   0  0  0  0  0  0  0  0  0  0  0  0
   -3.7933   -1.9189    7.9502 H   0  0  0  0  0  0  0  0  0  0  0  0
   -4.0772   -0.6746    9.7464 H   0  0  0  0  0  0  0  0  0  0  0  0
   -3.7151    0.6935    8.9272 H   0  0  0  0  0  0  0  0  0  0  0  0
   -1.5635    0.6176    8.7722 H   0  0  0  0  0  0  0  0  0  0  0  0
    6.9878   -2.3246   11.5268 H   0  0  0  0  0  0  0  0  0  0  0  0
    8.0770   -2.6942   13.2687 H   0  0  0  0  0  0  0  0  0  0  0  0
    8.7779   -0.9236   14.9095 H   0  0  0  0  0  0  0  0  0  0  0  0
    5.0154   -3.1248   14.9728 H   0  0  0  0  0  0  0  0  0  0  0  0
  1  2  1  0
  2  3  1  0
  3  4  1  0
  4  5  1  0
  5  6  1  0
  6  7  1  0
  7  8  1  0
  8  9  1  0
  3 10  1  0
 10 11  2  0
 11 12  1  0
 12 13  2  0
 13 14  1  0
 14 15  1  0
 14 16  2  0
  9  5  1  0
 16 10  1  0
  1 17  1  0
  1 18  1  0
  1 19  1  0
  2 20  1  0
  3 21  1  0
  4 22  1  0
  4 23  1  0
  5 24  1  0
  6 25  1  0
  6 26  1  0
  7 27  1  0
  7 28  1  0
  8 29  1  0
  8 30  1  0
  9 31  1  0
 11 32  1  0
 12 33  1  0
 13 34  1  0
 16 35  1  0
M  END
>  <Energy>  (47) 
1342.9238585025939

>  <compound_id>  (47) 
4668

>  <target_id>  (47) 
1

>  <reference_id>  (47) 
93

>  <inspiration_ids>  (47) 
[93, 95]

>  <energy_score>  (47) 
1293.7282331510885

>  <distance_score>  (47) 
7.929126509085122

>  <path>  (47) 
/opt/xchem-fragalysis-2/maxwin/BulkDock/SCRATCH/511018/C4668-P93/C4668-P93.minimised.mol

>  <scratch_subdir>  (47) 
/opt/xchem-fragalysis-2/maxwin/BulkDock/SCRATCH/511018/C4668-P93

>  <fragmenstein_runtime>  (47) 
6.1381330490112305

>  <fragmenstein_outcome>  (47) 
too moved

>  <fragmenstein_mode>  (47) 
expansion

>  <fragmenstein_error>  (47) 


$$$$
C4668-P95
     RDKit          3D

 35 36  0  0  0  0  0  0  0  0999 V2000
    3.2827    1.7946   11.7549 C   0  0  0  0  0  0  0  0  0  0  0  0
    3.6316    0.7541   10.8039 N   0  0  0  0  0  0  0  0  0  0  0  0
    3.8419   -0.9416   11.1580 C   0  0  0  0  0  0  0  0  0  0  0  0
    1.9126   -1.4469   10.4350 C   0  0  0  0  0  0  0  0  0  0  0  0
    0.6388   -1.9687    8.8748 C   0  0  0  0  0  0  0  0  0  0  0  0
   -1.4536   -1.6285    8.5128 C   0  0  0  0  0  0  0  0  0  0  0  0
   -1.6444   -1.5530    6.7410 C   0  0  0  0  0  0  0  0  0  0  0  0
   -0.1943   -1.6250    6.0187 C   0  0  0  0  0  0  0  0  0  0  0  0
    1.2145   -1.6882    7.0612 N   0  0  0  0  0  0  0  0  0  0  0  0
    5.7177   -1.1404   12.1122 C   0  0  0  0  0  0  0  0  0  0  0  0
    6.1987   -1.8533   13.5069 C   0  0  0  0  0  0  0  0  0  0  0  0
    7.3687   -1.7739   14.3290 C   0  0  0  0  0  0  0  0  0  0  0  0
    8.1988   -0.7585   14.0906 C   0  0  0  0  0  0  0  0  0  0  0  0
    7.9514   -0.1817   12.8287 C   0  0  0  0  0  0  0  0  0  0  0  0
    8.8835    0.7477   12.4922 F   0  0  0  0  0  0  0  0  0  0  0  0
    6.9448   -0.6461   11.7769 C   0  0  0  0  0  0  0  0  0  0  0  0
    4.1468    2.2266   12.2331 H   0  0  0  0  0  0  0  0  0  0  0  0
    2.8817    2.6446   11.1922 H   0  0  0  0  0  0  0  0  0  0  0  0
    2.5259    1.5002   12.4823 H   0  0  0  0  0  0  0  0  0  0  0  0
    4.5530    0.9883   10.4229 H   0  0  0  0  0  0  0  0  0  0  0  0
    3.7441   -2.0660   10.9093 H   0  0  0  0  0  0  0  0  0  0  0  0
    1.7386   -0.6160    9.7353 H   0  0  0  0  0  0  0  0  0  0  0  0
    1.2718   -1.4140   11.3101 H   0  0  0  0  0  0  0  0  0  0  0  0
    0.8963   -2.9673    8.4302 H   0  0  0  0  0  0  0  0  0  0  0  0
   -1.9131   -0.6794    8.7829 H   0  0  0  0  0  0  0  0  0  0  0  0
   -2.2593   -2.3356    8.7408 H   0  0  0  0  0  0  0  0  0  0  0  0
   -2.2912   -2.3780    6.4133 H   0  0  0  0  0  0  0  0  0  0  0  0
   -2.1934   -0.6555    6.5108 H   0  0  0  0  0  0  0  0  0  0  0  0
   -0.1695   -2.5109    5.3740 H   0  0  0  0  0  0  0  0  0  0  0  0
   -0.0167   -0.7833    5.3409 H   0  0  0  0  0  0  0  0  0  0  0  0
    1.5100   -0.7170    7.1340 H   0  0  0  0  0  0  0  0  0  0  0  0
    5.5181   -2.4989   14.0731 H   0  0  0  0  0  0  0  0  0  0  0  0
    7.5558   -2.4377   15.1461 H   0  0  0  0  0  0  0  0  0  0  0  0
    9.0635   -0.4929   14.6785 H   0  0  0  0  0  0  0  0  0  0  0  0
    7.1157   -0.3759   10.7433 H   0  0  0  0  0  0  0  0  0  0  0  0
  1  2  1  0
  2  3  1  0
  3  4  1  0
  4  5  1  0
  5  6  1  0
  6  7  1  0
  7  8  1  0
  8  9  1  0
  3 10  1  0
 10 11  2  0
 11 12  1  0
 12 13  2  0
 13 14  1  0
 14 15  1  0
 14 16  2  0
  9  5  1  0
 16 10  1  0
  1 17  1  0
  1 18  1  0
  1 19  1  0
  2 20  1  0
  3 21  1  0
  4 22  1  0
  4 23  1  0
  5 24  1  0
  6 25  1  0
  6 26  1  0
  7 27  1  0
  7 28  1  0
  8 29  1  0
  8 30  1  0
  9 31  1  0
 11 32  1  0
 12 33  1  0
 13 34  1  0
 16 35  1  0
M  END
>  <Energy>  (48) 
741.96124651191008

>  <compound_id>  (48) 
4668

>  <target_id>  (48) 
1

>  <reference_id>  (48) 
95

>  <inspiration_ids>  (48) 
[93, 95]

>  <energy_score>  (48) 
692.765621160414

>  <distance_score>  (48) 
8.804129669691163

>  <path>  (48) 
/opt/xchem-fragalysis-2/maxwin/BulkDock/SCRATCH/511018/C4668-P95/C4668-P95.minimised.mol

>  <scratch_subdir>  (48) 
/opt/xchem-fragalysis-2/maxwin/BulkDock/SCRATCH/511018/C4668-P95

>  <fragmenstein_runtime>  (48) 
5.217762231826782

>  <fragmenstein_outcome>  (48) 
too moved

>  <fragmenstein_mode>  (48) 
expansion

>  <fragmenstein_error>  (48) 


$$$$
C4669-P93
     RDKit          3D

 42 43  0  0  0  0  0  0  0  0999 V2000
   10.5201   -0.8058   15.1055 C   0  0  0  0  0  0  0  0  0  0  0  0
    9.0767   -0.4376   14.7712 C   0  0  0  0  0  0  0  0  0  0  0  0
    7.9321   -1.8726   14.8841 S   0  0  0  0  0  0  0  0  0  0  0  0
    6.8604   -1.9617   13.4766 C   0  0  0  0  0  0  0  0  0  0  0  0
    6.8154   -1.2251   12.3591 C   0  0  0  0  0  0  0  0  0  0  0  0
    5.4354   -0.9029   11.8659 C   0  0  0  0  0  0  0  0  0  0  0  0
    3.8813   -1.9158   11.5688 C   0  0  0  0  0  0  0  0  0  0  0  0
    2.1354   -0.8856   11.4023 C   0  0  0  0  0  0  0  0  0  0  0  0
    0.4845   -1.1319   10.1609 C   0  0  0  0  0  0  0  0  0  0  0  0
   -1.4968   -0.9073    9.2493 C   0  0  0  0  0  0  0  0  0  0  0  0
   -2.0063   -0.5943    7.7927 C   0  0  0  0  0  0  0  0  0  0  0  0
   -3.5240   -0.6313    7.5682 C   0  0  0  0  0  0  0  0  0  0  0  0
   -3.7821   -1.9935    7.8428 C   0  0  0  0  0  0  0  0  0  0  0  0
   -2.6840   -2.1200    8.7806 N   0  0  0  0  0  0  0  0  0  0  0  0
    3.0451    0.6733   11.4372 N   0  0  0  0  0  0  0  0  0  0  0  0
    3.4221    1.5233   10.3289 C   0  0  0  0  0  0  0  0  0  0  0  0
    4.2970   -3.1059   12.3386 C   0  0  0  0  0  0  0  0  0  0  0  0
    5.7520   -2.8500   13.4295 C   0  0  0  0  0  0  0  0  0  0  0  0
   11.1195    0.1071   15.1913 H   0  0  0  0  0  0  0  0  0  0  0  0
   10.6004   -1.3423   16.0484 H   0  0  0  0  0  0  0  0  0  0  0  0
   10.9960   -1.4294   14.3458 H   0  0  0  0  0  0  0  0  0  0  0  0
    9.0420    0.0653   13.8065 H   0  0  0  0  0  0  0  0  0  0  0  0
    8.7552    0.2821   15.5304 H   0  0  0  0  0  0  0  0  0  0  0  0
    7.5902   -0.4989   12.2320 H   0  0  0  0  0  0  0  0  0  0  0  0
    5.4109   -0.0620   12.5213 H   0  0  0  0  0  0  0  0  0  0  0  0
    1.6316   -0.7354   12.3970 H   0  0  0  0  0  0  0  0  0  0  0  0
    0.9430   -1.9305    9.5675 H   0  0  0  0  0  0  0  0  0  0  0  0
    1.0783   -0.3308    9.7094 H   0  0  0  0  0  0  0  0  0  0  0  0
   -2.1789   -0.1252    9.6748 H   0  0  0  0  0  0  0  0  0  0  0  0
   -1.7955    0.4146    7.8252 H   0  0  0  0  0  0  0  0  0  0  0  0
   -1.4363   -1.0377    6.9857 H   0  0  0  0  0  0  0  0  0  0  0  0
   -4.0615    0.0016    8.2927 H   0  0  0  0  0  0  0  0  0  0  0  0
   -3.8840   -0.3946    6.5772 H   0  0  0  0  0  0  0  0  0  0  0  0
   -4.8065   -2.0086    8.2222 H   0  0  0  0  0  0  0  0  0  0  0  0
   -3.7546   -2.7334    7.0593 H   0  0  0  0  0  0  0  0  0  0  0  0
   -3.2823   -1.8194    9.5438 H   0  0  0  0  0  0  0  0  0  0  0  0
    2.7477    1.1850   12.2637 H   0  0  0  0  0  0  0  0  0  0  0  0
    2.6166    1.6956    9.6111 H   0  0  0  0  0  0  0  0  0  0  0  0
    3.6829    2.5108   10.7282 H   0  0  0  0  0  0  0  0  0  0  0  0
    4.3063    1.1957    9.7864 H   0  0  0  0  0  0  0  0  0  0  0  0
    3.4865   -3.7659   12.6735 H   0  0  0  0  0  0  0  0  0  0  0  0
    5.5450   -3.1346   14.4909 H   0  0  0  0  0  0  0  0  0  0  0  0
  1  2  1  0
  2  3  1  0
  3  4  1  0
  4  5  2  0
  5  6  1  0
  6  7  2  0
  7  8  1  0
  8  9  1  0
  9 10  1  0
 10 11  1  0
 11 12  1  0
 12 13  1  0
 13 14  1  0
  8 15  1  0
 15 16  1  0
  7 17  1  0
 17 18  2  0
 18  4  1  0
 14 10  1  0
  1 19  1  0
  1 20  1  0
  1 21  1  0
  2 22  1  0
  2 23  1  0
  5 24  1  0
  6 25  1  0
  8 26  1  0
  9 27  1  0
  9 28  1  0
 10 29  1  0
 11 30  1  0
 11 31  1  0
 12 32  1  0
 12 33  1  0
 13 34  1  0
 13 35  1  0
 14 36  1  0
 15 37  1  0
 16 38  1  0
 16 39  1  0
 16 40  1  0
 17 41  1  0
 18 42  1  0
M  END
>  <Energy>  (49) 
745.06971770413645

>  <compound_id>  (49) 
4669

>  <target_id>  (49) 
1

>  <reference_id>  (49) 
93

>  <inspiration_ids>  (49) 
[93, 95]

>  <energy_score>  (49) 
686.7201894790901

>  <distance_score>  (49) 
8.74479250550741

>  <path>  (49) 
/opt/xchem-fragalysis-2/maxwin/BulkDock/SCRATCH/511018/C4669-P93/C4669-P93.minimised.mol

>  <scratch_subdir>  (49) 
/opt/xchem-fragalysis-2/maxwin/BulkDock/SCRATCH/511018/C4669-P93

>  <fragmenstein_runtime>  (49) 
11.725877285003662

>  <fragmenstein_outcome>  (49) 
too moved

>  <fragmenstein_mode>  (49) 
expansion

>  <fragmenstein_error>  (49) 


$$$$
C4669-P95
     RDKit          3D

 42 43  0  0  0  0  0  0  0  0999 V2000
   12.4162   -2.7571   14.0164 C   0  0  0  0  0  0  0  0  0  0  0  0
   11.9986   -2.2489   15.3818 C   0  0  0  0  0  0  0  0  0  0  0  0
   11.0096   -0.7206   15.2488 S   0  0  0  0  0  0  0  0  0  0  0  0
    9.3802   -1.2635   15.0012 C   0  0  0  0  0  0  0  0  0  0  0  0
    8.3387   -0.4280   14.8552 C   0  0  0  0  0  0  0  0  0  0  0  0
    6.8993   -0.9921   14.4788 C   0  0  0  0  0  0  0  0  0  0  0  0
    6.2617   -2.1084   13.8160 C   0  0  0  0  0  0  0  0  0  0  0  0
    5.3644   -2.3827   12.0331 C   0  0  0  0  0  0  0  0  0  0  0  0
    3.4381   -2.2845   11.1019 C   0  0  0  0  0  0  0  0  0  0  0  0
    1.5523   -1.5541   10.3807 C   0  0  0  0  0  0  0  0  0  0  0  0
    0.5100   -2.2332    8.7552 C   0  0  0  0  0  0  0  0  0  0  0  0
   -1.5858   -1.8838    8.3809 C   0  0  0  0  0  0  0  0  0  0  0  0
   -1.7980   -1.0444    9.3272 C   0  0  0  0  0  0  0  0  0  0  0  0
   -0.2403   -1.1221   10.6195 N   0  0  0  0  0  0  0  0  0  0  0  0
    6.7246   -1.9270   11.4385 N   0  0  0  0  0  0  0  0  0  0  0  0
    7.0676   -0.6309   11.5695 C   0  0  0  0  0  0  0  0  0  0  0  0
    7.5475   -2.6345   14.0915 C   0  0  0  0  0  0  0  0  0  0  0  0
    8.8783   -2.4946   14.8385 C   0  0  0  0  0  0  0  0  0  0  0  0
   11.5595   -3.0766   13.4176 H   0  0  0  0  0  0  0  0  0  0  0  0
   12.9687   -1.9970   13.4537 H   0  0  0  0  0  0  0  0  0  0  0  0
   13.0780   -3.6195   14.1384 H   0  0  0  0  0  0  0  0  0  0  0  0
   12.8992   -1.9925   15.9501 H   0  0  0  0  0  0  0  0  0  0  0  0
   11.4781   -3.0191   15.9562 H   0  0  0  0  0  0  0  0  0  0  0  0
    8.4614    0.5994   15.1918 H   0  0  0  0  0  0  0  0  0  0  0  0
    6.6606   -0.9819   15.5758 H   0  0  0  0  0  0  0  0  0  0  0  0
    5.2674   -3.4518   11.9029 H   0  0  0  0  0  0  0  0  0  0  0  0
    3.1577   -2.9380   11.9795 H   0  0  0  0  0  0  0  0  0  0  0  0
    3.5820   -2.9969   10.2958 H   0  0  0  0  0  0  0  0  0  0  0  0
    1.7565   -0.7477    9.7217 H   0  0  0  0  0  0  0  0  0  0  0  0
    1.2066   -1.9340    7.8888 H   0  0  0  0  0  0  0  0  0  0  0  0
    0.9348   -3.2272    8.3438 H   0  0  0  0  0  0  0  0  0  0  0  0
   -1.7884   -1.4885    7.3471 H   0  0  0  0  0  0  0  0  0  0  0  0
   -2.4014   -2.6326    8.4670 H   0  0  0  0  0  0  0  0  0  0  0  0
   -1.8077   -0.1904    8.6285 H   0  0  0  0  0  0  0  0  0  0  0  0
   -2.7937   -0.4733    9.4198 H   0  0  0  0  0  0  0  0  0  0  0  0
    0.0805   -0.6842    9.7095 H   0  0  0  0  0  0  0  0  0  0  0  0
    7.2860   -2.5535   10.8812 H   0  0  0  0  0  0  0  0  0  0  0  0
    6.1325   -0.4101   11.9948 H   0  0  0  0  0  0  0  0  0  0  0  0
    7.8176   -0.2227   12.2275 H   0  0  0  0  0  0  0  0  0  0  0  0
    7.1311   -0.2850   10.5600 H   0  0  0  0  0  0  0  0  0  0  0  0
    8.0164   -2.4377   13.1344 H   0  0  0  0  0  0  0  0  0  0  0  0
    9.5342   -3.3598   14.8591 H   0  0  0  0  0  0  0  0  0  0  0  0
  1  2  1  0
  2  3  1  0
  3  4  1  0
  4  5  2  0
  5  6  1  0
  6  7  2  0
  7  8  1  0
  8  9  1  0
  9 10  1  0
 10 11  1  0
 11 12  1  0
 12 13  1  0
 13 14  1  0
  8 15  1  0
 15 16  1  0
  7 17  1  0
 17 18  2  0
 18  4  1  0
 14 10  1  0
  1 19  1  0
  1 20  1  0
  1 21  1  0
  2 22  1  0
  2 23  1  0
  5 24  1  0
  6 25  1  0
  8 26  1  0
  9 27  1  0
  9 28  1  0
 10 29  1  0
 11 30  1  0
 11 31  1  0
 12 32  1  0
 12 33  1  0
 13 34  1  0
 13 35  1  0
 14 36  1  0
 15 37  1  0
 16 38  1  0
 16 39  1  0
 16 40  1  0
 17 41  1  0
 18 42  1  0
M  END
>  <Energy>  (50) 
1114.1138176300874

>  <compound_id>  (50) 
4669

>  <target_id>  (50) 
1

>  <reference_id>  (50) 
95

>  <inspiration_ids>  (50) 
[93, 95]

>  <energy_score>  (50) 
1055.7642894050514

>  <distance_score>  (50) 
7.625399258503797

>  <path>  (50) 
/opt/xchem-fragalysis-2/maxwin/BulkDock/SCRATCH/511018/C4669-P95/C4669-P95.minimised.mol

>  <scratch_subdir>  (50) 
/opt/xchem-fragalysis-2/maxwin/BulkDock/SCRATCH/511018/C4669-P95

>  <fragmenstein_runtime>  (50) 
11.711369514465332

>  <fragmenstein_outcome>  (50) 
too moved

>  <fragmenstein_mode>  (50) 
expansion

>  <fragmenstein_error>  (50) 


$$$$
C4671-P93
     RDKit          3D

 35 36  0  0  0  0  0  0  0  0999 V2000
    4.4170    3.3493   10.7709 C   0  0  0  0  0  0  0  0  0  0  0  0
    4.8080    2.8387   12.0677 N   0  0  0  0  0  0  0  0  0  0  0  0
    4.3347    1.2152   12.2536 C   0  0  0  0  0  0  0  0  0  0  0  0
    2.6874    1.7541   12.8617 C   0  0  0  0  0  0  0  0  0  0  0  0
    1.5179    2.0161   13.9771 C   0  0  0  0  0  0  0  0  0  0  0  0
    0.6430    3.2540   13.6453 C   0  0  0  0  0  0  0  0  0  0  0  0
   -0.3242    3.3071   14.8128 C   0  0  0  0  0  0  0  0  0  0  0  0
    0.4717    2.6860   15.9501 C   0  0  0  0  0  0  0  0  0  0  0  0
    1.7932    2.3508   15.3821 N   0  0  0  0  0  0  0  0  0  0  0  0
    5.6829   -0.3855   12.6198 C   0  0  0  0  0  0  0  0  0  0  0  0
    6.2245   -1.3420   14.0021 C   0  0  0  0  0  0  0  0  0  0  0  0
    7.4661   -1.4958   14.6003 C   0  0  0  0  0  0  0  0  0  0  0  0
    8.2342   -0.6913   13.9222 C   0  0  0  0  0  0  0  0  0  0  0  0
    9.6346    0.0491   14.5923 Cl  0  0  0  0  0  0  0  0  0  0  0  0
    7.8179   -0.7241   12.5150 C   0  0  0  0  0  0  0  0  0  0  0  0
    6.6509   -0.7449   11.7764 C   0  0  0  0  0  0  0  0  0  0  0  0
    3.3286    3.3848   10.6679 H   0  0  0  0  0  0  0  0  0  0  0  0
    4.8233    2.7584    9.9450 H   0  0  0  0  0  0  0  0  0  0  0  0
    4.7939    4.3700   10.6544 H   0  0  0  0  0  0  0  0  0  0  0  0
    4.4538    3.4117   12.8230 H   0  0  0  0  0  0  0  0  0  0  0  0
    3.9716    0.9017   11.2313 H   0  0  0  0  0  0  0  0  0  0  0  0
    3.1538    2.5182   13.4646 H   0  0  0  0  0  0  0  0  0  0  0  0
    2.4043    0.7192   12.8850 H   0  0  0  0  0  0  0  0  0  0  0  0
    0.8803    1.1207   14.0428 H   0  0  0  0  0  0  0  0  0  0  0  0
    1.2659    4.1595   13.6274 H   0  0  0  0  0  0  0  0  0  0  0  0
    0.0810    3.2503   12.7134 H   0  0  0  0  0  0  0  0  0  0  0  0
   -1.2194    2.7111   14.6027 H   0  0  0  0  0  0  0  0  0  0  0  0
   -0.6314    4.3345   15.0303 H   0  0  0  0  0  0  0  0  0  0  0  0
   -0.0276    1.7831   16.3203 H   0  0  0  0  0  0  0  0  0  0  0  0
    0.5876    3.3785   16.7892 H   0  0  0  0  0  0  0  0  0  0  0  0
    2.1884    1.5641   15.8893 H   0  0  0  0  0  0  0  0  0  0  0  0
    5.6046   -2.0887   14.5359 H   0  0  0  0  0  0  0  0  0  0  0  0
    7.6799   -1.9862   15.5138 H   0  0  0  0  0  0  0  0  0  0  0  0
    7.6824   -1.8612   12.3792 H   0  0  0  0  0  0  0  0  0  0  0  0
    6.7057   -0.5841   10.7167 H   0  0  0  0  0  0  0  0  0  0  0  0
  1  2  1  0
  2  3  1  0
  3  4  1  0
  4  5  1  0
  5  6  1  0
  6  7  1  0
  7  8  1  0
  8  9  1  0
  3 10  1  0
 10 11  2  0
 11 12  1  0
 12 13  2  0
 13 14  1  0
 13 15  1  0
 15 16  2  0
  9  5  1  0
 16 10  1  0
  1 17  1  0
  1 18  1  0
  1 19  1  0
  2 20  1  0
  3 21  1  0
  4 22  1  0
  4 23  1  0
  5 24  1  0
  6 25  1  0
  6 26  1  0
  7 27  1  0
  7 28  1  0
  8 29  1  0
  8 30  1  0
  9 31  1  0
 11 32  1  0
 12 33  1  0
 15 34  1  0
 16 35  1  0
M  END
>  <Energy>  (51) 
506.06282807366631

>  <compound_id>  (51) 
4671

>  <target_id>  (51) 
1

>  <reference_id>  (51) 
93

>  <inspiration_ids>  (51) 
[93, 95]

>  <energy_score>  (51) 
454.1635052190957

>  <distance_score>  (51) 
11.008642224557777

>  <path>  (51) 
/opt/xchem-fragalysis-2/maxwin/BulkDock/SCRATCH/511018/C4671-P93/C4671-P93.minimised.mol

>  <scratch_subdir>  (51) 
/opt/xchem-fragalysis-2/maxwin/BulkDock/SCRATCH/511018/C4671-P93

>  <fragmenstein_runtime>  (51) 
9.496725082397461

>  <fragmenstein_outcome>  (51) 
too moved

>  <fragmenstein_mode>  (51) 
expansion

>  <fragmenstein_error>  (51) 


$$$$
C4671-P95
     RDKit          3D

 35 36  0  0  0  0  0  0  0  0999 V2000
    7.5861    0.0589   12.1083 C   0  0  0  0  0  0  0  0  0  0  0  0
    6.3209   -0.6319   11.2137 N   0  0  0  0  0  0  0  0  0  0  0  0
    4.3008   -0.7885   11.3338 C   0  0  0  0  0  0  0  0  0  0  0  0
    2.1526   -1.2564   10.7963 C   0  0  0  0  0  0  0  0  0  0  0  0
    0.1739   -1.1912    9.7505 C   0  0  0  0  0  0  0  0  0  0  0  0
   -1.9175   -1.1034    9.2816 C   0  0  0  0  0  0  0  0  0  0  0  0
   -3.2331   -1.1244    8.2693 C   0  0  0  0  0  0  0  0  0  0  0  0
   -2.1630   -1.0648    7.3991 C   0  0  0  0  0  0  0  0  0  0  0  0
   -1.2978   -1.7690    8.4449 N   0  0  0  0  0  0  0  0  0  0  0  0
    5.9013   -1.3998   12.6337 C   0  0  0  0  0  0  0  0  0  0  0  0
    7.2255   -1.8760   13.0091 C   0  0  0  0  0  0  0  0  0  0  0  0
    8.3876   -1.9859   14.1982 C   0  0  0  0  0  0  0  0  0  0  0  0
    8.3193   -1.1524   15.1880 C   0  0  0  0  0  0  0  0  0  0  0  0
    9.5176   -0.4294   16.0842 Cl  0  0  0  0  0  0  0  0  0  0  0  0
    7.0252   -1.0765   15.2833 C   0  0  0  0  0  0  0  0  0  0  0  0
    5.9805   -1.5926   14.1084 C   0  0  0  0  0  0  0  0  0  0  0  0
    8.1160   -0.4883   11.4414 H   0  0  0  0  0  0  0  0  0  0  0  0
    8.2822    0.9051   12.1192 H   0  0  0  0  0  0  0  0  0  0  0  0
    7.8209   -0.0437   13.1540 H   0  0  0  0  0  0  0  0  0  0  0  0
    6.7534   -1.4949   10.9293 H   0  0  0  0  0  0  0  0  0  0  0  0
    4.2208    0.2704   10.9674 H   0  0  0  0  0  0  0  0  0  0  0  0
    2.6046   -2.1736   10.5432 H   0  0  0  0  0  0  0  0  0  0  0  0
    1.6093   -1.1449   11.7412 H   0  0  0  0  0  0  0  0  0  0  0  0
   -0.2272   -1.2298   10.8289 H   0  0  0  0  0  0  0  0  0  0  0  0
   -2.5074   -0.0893    9.5176 H   0  0  0  0  0  0  0  0  0  0  0  0
   -2.5821   -2.1021    9.4554 H   0  0  0  0  0  0  0  0  0  0  0  0
   -3.9277   -0.2812    8.3556 H   0  0  0  0  0  0  0  0  0  0  0  0
   -3.8216   -2.0459    8.1633 H   0  0  0  0  0  0  0  0  0  0  0  0
   -2.5374   -1.5941    6.5388 H   0  0  0  0  0  0  0  0  0  0  0  0
   -2.0952   -0.0127    7.3835 H   0  0  0  0  0  0  0  0  0  0  0  0
   -1.7775   -2.6871    8.3743 H   0  0  0  0  0  0  0  0  0  0  0  0
    7.7120   -2.1249   12.1070 H   0  0  0  0  0  0  0  0  0  0  0  0
    9.3855   -2.3764   14.0374 H   0  0  0  0  0  0  0  0  0  0  0  0
    6.6524   -0.6469   16.2191 H   0  0  0  0  0  0  0  0  0  0  0  0
    5.2029   -2.2178   14.5946 H   0  0  0  0  0  0  0  0  0  0  0  0
  1  2  1  0
  2  3  1  0
  3  4  1  0
  4  5  1  0
  5  6  1  0
  6  7  1  0
  7  8  1  0
  8  9  1  0
  3 10  1  0
 10 11  2  0
 11 12  1  0
 12 13  2  0
 13 14  1  0
 13 15  1  0
 15 16  2  0
  9  5  1  0
 16 10  1  0
  1 17  1  0
  1 18  1  0
  1 19  1  0
  2 20  1  0
  3 21  1  0
  4 22  1  0
  4 23  1  0
  5 24  1  0
  6 25  1  0
  6 26  1  0
  7 27  1  0
  7 28  1  0
  8 29  1  0
  8 30  1  0
  9 31  1  0
 11 32  1  0
 12 33  1  0
 15 34  1  0
 16 35  1  0
M  END
>  <Energy>  (52) 
1854.9362225605269

>  <compound_id>  (52) 
4671

>  <target_id>  (52) 
1

>  <reference_id>  (52) 
95

>  <inspiration_ids>  (52) 
[93, 95]

>  <energy_score>  (52) 
1803.036899705938

>  <distance_score>  (52) 
7.441301652261081

>  <path>  (52) 
/opt/xchem-fragalysis-2/maxwin/BulkDock/SCRATCH/511018/C4671-P95/C4671-P95.minimised.mol

>  <scratch_subdir>  (52) 
/opt/xchem-fragalysis-2/maxwin/BulkDock/SCRATCH/511018/C4671-P95

>  <fragmenstein_runtime>  (52) 
4.979011297225952

>  <fragmenstein_outcome>  (52) 
too moved

>  <fragmenstein_mode>  (52) 
expansion

>  <fragmenstein_error>  (52) 


$$$$
C4674-P93
     RDKit          3D

 35 36  0  0  0  0  0  0  0  0999 V2000
    3.4133    1.5746   10.2799 C   0  0  0  0  0  0  0  0  0  0  0  0
    3.0488    0.7229   11.3906 N   0  0  0  0  0  0  0  0  0  0  0  0
    2.1074   -0.8032   11.3377 C   0  0  0  0  0  0  0  0  0  0  0  0
    0.4015   -1.0233   10.1913 C   0  0  0  0  0  0  0  0  0  0  0  0
   -1.5524   -0.7763    9.2698 C   0  0  0  0  0  0  0  0  0  0  0  0
   -2.8579    0.3486    9.6104 C   0  0  0  0  0  0  0  0  0  0  0  0
   -4.0935   -0.1924    8.8568 C   0  0  0  0  0  0  0  0  0  0  0  0
   -3.6382   -1.2227    7.8909 C   0  0  0  0  0  0  0  0  0  0  0  0
   -2.4398   -1.8174    8.4551 N   0  0  0  0  0  0  0  0  0  0  0  0
    3.7748   -1.8716   11.5058 C   0  0  0  0  0  0  0  0  0  0  0  0
    3.7035   -3.1933   11.7216 C   0  0  0  0  0  0  0  0  0  0  0  0
    4.9598   -3.2783   12.2839 C   0  0  0  0  0  0  0  0  0  0  0  0
    6.2755   -2.2431   12.7689 C   0  0  0  0  0  0  0  0  0  0  0  0
    7.1898   -2.2206   14.4712 Br  0  0  0  0  0  0  0  0  0  0  0  0
    6.6146   -1.1940   12.0741 C   0  0  0  0  0  0  0  0  0  0  0  0
    5.3178   -0.8156   11.7686 C   0  0  0  0  0  0  0  0  0  0  0  0
    2.6012    1.7317    9.5662 H   0  0  0  0  0  0  0  0  0  0  0  0
    3.6689    2.5655   10.6735 H   0  0  0  0  0  0  0  0  0  0  0  0
    4.2980    1.2481    9.7355 H   0  0  0  0  0  0  0  0  0  0  0  0
    2.7756    1.2319   12.2270 H   0  0  0  0  0  0  0  0  0  0  0  0
    1.6488   -0.7056   12.3592 H   0  0  0  0  0  0  0  0  0  0  0  0
    0.8650   -1.8606    9.6918 H   0  0  0  0  0  0  0  0  0  0  0  0
   -0.0523   -0.9080   11.1367 H   0  0  0  0  0  0  0  0  0  0  0  0
   -1.5642   -0.2434    8.3190 H   0  0  0  0  0  0  0  0  0  0  0  0
   -2.6367    1.3600    9.2824 H   0  0  0  0  0  0  0  0  0  0  0  0
   -3.0712    0.5222   10.6727 H   0  0  0  0  0  0  0  0  0  0  0  0
   -4.6573    0.5897    8.3401 H   0  0  0  0  0  0  0  0  0  0  0  0
   -4.7752   -0.6626    9.5490 H   0  0  0  0  0  0  0  0  0  0  0  0
   -4.4060   -1.9730    7.6856 H   0  0  0  0  0  0  0  0  0  0  0  0
   -3.4137   -0.7548    6.9392 H   0  0  0  0  0  0  0  0  0  0  0  0
   -1.8987   -2.1711    7.6822 H   0  0  0  0  0  0  0  0  0  0  0  0
    2.9941   -3.9535   11.5073 H   0  0  0  0  0  0  0  0  0  0  0  0
    5.2010   -4.2845   11.9747 H   0  0  0  0  0  0  0  0  0  0  0  0
    7.4332   -0.5654   12.3510 H   0  0  0  0  0  0  0  0  0  0  0  0
    5.3820   -0.0344   12.5129 H   0  0  0  0  0  0  0  0  0  0  0  0
  1  2  1  0
  2  3  1  0
  3  4  1  0
  4  5  1  0
  5  6  1  0
  6  7  1  0
  7  8  1  0
  8  9  1  0
  3 10  1  0
 10 11  2  0
 11 12  1  0
 12 13  2  0
 13 14  1  0
 13 15  1  0
 15 16  2  0
  9  5  1  0
 16 10  1  0
  1 17  1  0
  1 18  1  0
  1 19  1  0
  2 20  1  0
  3 21  1  0
  4 22  1  0
  4 23  1  0
  5 24  1  0
  6 25  1  0
  6 26  1  0
  7 27  1  0
  7 28  1  0
  8 29  1  0
  8 30  1  0
  9 31  1  0
 11 32  1  0
 12 33  1  0
 15 34  1  0
 16 35  1  0
M  END
>  <Energy>  (53) 
638.23005474288345

>  <compound_id>  (53) 
4674

>  <target_id>  (53) 
1

>  <reference_id>  (53) 
93

>  <inspiration_ids>  (53) 
[93, 95]

>  <energy_score>  (53) 
582.371747141125

>  <distance_score>  (53) 
8.783593299339305

>  <path>  (53) 
/opt/xchem-fragalysis-2/maxwin/BulkDock/SCRATCH/511018/C4674-P93/C4674-P93.minimised.mol

>  <scratch_subdir>  (53) 
/opt/xchem-fragalysis-2/maxwin/BulkDock/SCRATCH/511018/C4674-P93

>  <fragmenstein_runtime>  (53) 
5.967482566833496

>  <fragmenstein_outcome>  (53) 
too moved

>  <fragmenstein_mode>  (53) 
expansion

>  <fragmenstein_error>  (53) 


$$$$
C4674-P95
     RDKit          3D

 35 36  0  0  0  0  0  0  0  0999 V2000
   14.4699    0.7621   14.5475 C   0  0  0  0  0  0  0  0  0  0  0  0
   13.1369    0.1950   14.6778 N   0  0  0  0  0  0  0  0  0  0  0  0
   13.0526   -1.2775   14.5564 C   0  0  0  0  0  0  0  0  0  0  0  0
   11.5882   -1.6333   14.1474 C   0  0  0  0  0  0  0  0  0  0  0  0
   10.4329   -1.1340   15.0564 C   0  0  0  0  0  0  0  0  0  0  0  0
   10.0969    0.3447   14.9502 C   0  0  0  0  0  0  0  0  0  0  0  0
    8.7390    0.3822   15.5944 C   0  0  0  0  0  0  0  0  0  0  0  0
    8.0753   -0.8008   14.9271 C   0  0  0  0  0  0  0  0  0  0  0  0
    9.1311   -1.8063   14.8167 N   0  0  0  0  0  0  0  0  0  0  0  0
   13.6029   -2.0716   15.7423 C   0  0  0  0  0  0  0  0  0  0  0  0
   12.8246   -2.9696   16.4916 C   0  0  0  0  0  0  0  0  0  0  0  0
   13.3556   -3.6752   17.5762 C   0  0  0  0  0  0  0  0  0  0  0  0
   14.6900   -3.5232   17.9177 C   0  0  0  0  0  0  0  0  0  0  0  0
   15.3993   -4.4393   19.4094 Br  0  0  0  0  0  0  0  0  0  0  0  0
   15.5076   -2.7026   17.1549 C   0  0  0  0  0  0  0  0  0  0  0  0
   14.9702   -2.0030   16.0691 C   0  0  0  0  0  0  0  0  0  0  0  0
   15.0561    0.6498   15.4616 H   0  0  0  0  0  0  0  0  0  0  0  0
   14.3811    1.8406   14.3765 H   0  0  0  0  0  0  0  0  0  0  0  0
   15.0161    0.3434   13.6964 H   0  0  0  0  0  0  0  0  0  0  0  0
   12.5748    0.5957   13.9277 H   0  0  0  0  0  0  0  0  0  0  0  0
   13.6586   -1.5851   13.6908 H   0  0  0  0  0  0  0  0  0  0  0  0
   11.4582   -1.2160   13.1441 H   0  0  0  0  0  0  0  0  0  0  0  0
   11.5106   -2.7222   14.0244 H   0  0  0  0  0  0  0  0  0  0  0  0
   10.6881   -1.3441   16.0958 H   0  0  0  0  0  0  0  0  0  0  0  0
   10.0509    0.6876   13.9096 H   0  0  0  0  0  0  0  0  0  0  0  0
   10.7933    0.9846   15.4966 H   0  0  0  0  0  0  0  0  0  0  0  0
    8.2994    1.3705   15.4777 H   0  0  0  0  0  0  0  0  0  0  0  0
    8.8250    0.2130   16.6747 H   0  0  0  0  0  0  0  0  0  0  0  0
    7.7447   -0.5752   13.9125 H   0  0  0  0  0  0  0  0  0  0  0  0
    7.2288   -1.1626   15.4913 H   0  0  0  0  0  0  0  0  0  0  0  0
    9.1377   -2.0396   13.8165 H   0  0  0  0  0  0  0  0  0  0  0  0
   11.7874   -3.1791   16.2486 H   0  0  0  0  0  0  0  0  0  0  0  0
   12.7183   -4.3527   18.1380 H   0  0  0  0  0  0  0  0  0  0  0  0
   16.5641   -2.6044   17.3869 H   0  0  0  0  0  0  0  0  0  0  0  0
   15.6538   -1.4123   15.4680 H   0  0  0  0  0  0  0  0  0  0  0  0
  1  2  1  0
  2  3  1  0
  3  4  1  0
  4  5  1  0
  5  6  1  0
  6  7  1  0
  7  8  1  0
  8  9  1  0
  3 10  1  0
 10 11  2  0
 11 12  1  0
 12 13  2  0
 13 14  1  0
 13 15  1  0
 15 16  2  0
  9  5  1  0
 16 10  1  0
  1 17  1  0
  1 18  1  0
  1 19  1  0
  2 20  1  0
  3 21  1  0
  4 22  1  0
  4 23  1  0
  5 24  1  0
  6 25  1  0
  6 26  1  0
  7 27  1  0
  7 28  1  0
  8 29  1  0
  8 30  1  0
  9 31  1  0
 11 32  1  0
 12 33  1  0
 15 34  1  0
 16 35  1  0
M  END
>  <Energy>  (54) 
38.486000834293883

>  <compound_id>  (54) 
4674

>  <target_id>  (54) 
1

>  <reference_id>  (54) 
95

>  <inspiration_ids>  (54) 
[93, 95]

>  <energy_score>  (54) 
-17.37230676745753

>  <distance_score>  (54) 
12.149514015831107

>  <path>  (54) 
/opt/xchem-fragalysis-2/maxwin/BulkDock/SCRATCH/511018/C4674-P95/C4674-P95.minimised.mol

>  <scratch_subdir>  (54) 
/opt/xchem-fragalysis-2/maxwin/BulkDock/SCRATCH/511018/C4674-P95

>  <fragmenstein_runtime>  (54) 
7.503610372543335

>  <fragmenstein_outcome>  (54) 
too moved

>  <fragmenstein_mode>  (54) 
expansion

>  <fragmenstein_error>  (54) 


$$$$
C4678-P93
     RDKit          3D

 47 49  0  0  0  0  0  0  0  0999 V2000
   -2.2173    4.2967    3.3144 C   0  0  0  0  0  0  0  0  0  0  0  0
   -1.0924    4.5086    4.3402 C   0  0  0  0  0  0  0  0  0  0  0  0
   -1.4498    5.2771    5.6520 C   0  0  0  0  0  0  0  0  0  0  0  0
   -2.9280    4.9165    6.0655 C   0  0  0  0  0  0  0  0  0  0  0  0
   -3.5860    5.4555    7.2540 N   0  0  0  0  0  0  0  0  0  0  0  0
   -5.0471    5.2029    7.1389 C   0  0  0  0  0  0  0  0  0  0  0  0
   -5.5655    5.0983    8.5619 C   0  0  0  0  0  0  0  0  0  0  0  0
   -4.3253    5.2788    9.4165 C   0  0  0  0  0  0  0  0  0  0  0  0
   -3.1976    4.8181    8.5090 C   0  0  0  0  0  0  0  0  0  0  0  0
   -0.3561    5.2133    6.6792 N   0  0  0  0  0  0  0  0  0  0  0  0
    1.0891    4.9467    6.5369 C   0  0  0  0  0  0  0  0  0  0  0  0
    1.7349    4.6347    5.5720 O   0  0  0  0  0  0  0  0  0  0  0  0
    1.8985    5.2331    7.8871 C   0  0  0  0  0  0  0  0  0  0  0  0
    2.9536    4.1973    8.3325 C   0  0  0  0  0  0  0  0  0  0  0  0
    3.5055    3.1707    7.5852 C   0  0  0  0  0  0  0  0  0  0  0  0
    4.0421    2.2465    8.4478 N   0  0  0  0  0  0  0  0  0  0  0  0
    3.6744    2.6041    9.7173 C   0  0  0  0  0  0  0  0  0  0  0  0
    3.4743    1.8891   10.8909 C   0  0  0  0  0  0  0  0  0  0  0  0
    3.2777    2.6009   12.0684 C   0  0  0  0  0  0  0  0  0  0  0  0
    3.4713    3.9698   12.1015 C   0  0  0  0  0  0  0  0  0  0  0  0
    3.5806    4.6536   10.8969 C   0  0  0  0  0  0  0  0  0  0  0  0
    4.0537    6.2867   10.8381 Cl  0  0  0  0  0  0  0  0  0  0  0  0
    3.4832    3.9809    9.6662 C   0  0  0  0  0  0  0  0  0  0  0  0
   -1.8050    3.8342    2.4113 H   0  0  0  0  0  0  0  0  0  0  0  0
   -2.6599    5.2547    3.0241 H   0  0  0  0  0  0  0  0  0  0  0  0
   -3.0077    3.6388    3.6833 H   0  0  0  0  0  0  0  0  0  0  0  0
   -0.6475    3.5394    4.5820 H   0  0  0  0  0  0  0  0  0  0  0  0
   -0.2921    5.0682    3.8377 H   0  0  0  0  0  0  0  0  0  0  0  0
   -1.4717    6.3445    5.3919 H   0  0  0  0  0  0  0  0  0  0  0  0
   -3.5316    5.2917    5.2270 H   0  0  0  0  0  0  0  0  0  0  0  0
   -3.0770    3.8460    6.0590 H   0  0  0  0  0  0  0  0  0  0  0  0
   -5.2740    4.2688    6.6083 H   0  0  0  0  0  0  0  0  0  0  0  0
   -5.5288    6.0253    6.5994 H   0  0  0  0  0  0  0  0  0  0  0  0
   -6.0115    4.1122    8.7096 H   0  0  0  0  0  0  0  0  0  0  0  0
   -6.3208    5.8566    8.7899 H   0  0  0  0  0  0  0  0  0  0  0  0
   -4.3635    4.7432   10.3657 H   0  0  0  0  0  0  0  0  0  0  0  0
   -4.1990    6.3427    9.6594 H   0  0  0  0  0  0  0  0  0  0  0  0
   -3.1793    3.7251    8.4392 H   0  0  0  0  0  0  0  0  0  0  0  0
   -2.2322    5.1709    8.8789 H   0  0  0  0  0  0  0  0  0  0  0  0
   -0.5431    5.5331    7.6207 H   0  0  0  0  0  0  0  0  0  0  0  0
    2.3988    6.1995    7.7515 H   0  0  0  0  0  0  0  0  0  0  0  0
    1.1827    5.3458    8.7096 H   0  0  0  0  0  0  0  0  0  0  0  0
    3.4711    2.9508    6.5249 H   0  0  0  0  0  0  0  0  0  0  0  0
    4.4358    1.3621    8.1415 H   0  0  0  0  0  0  0  0  0  0  0  0
    3.4985    0.8153   10.9116 H   0  0  0  0  0  0  0  0  0  0  0  0
    3.0528    2.0564   12.9751 H   0  0  0  0  0  0  0  0  0  0  0  0
    3.4949    4.4935   13.0514 H   0  0  0  0  0  0  0  0  0  0  0  0
  1  2  1  0
  2  3  1  0
  3  4  1  0
  4  5  1  0
  5  6  1  0
  6  7  1  0
  7  8  1  0
  8  9  1  0
  3 10  1  0
 10 11  1  0
 11 12  2  0
 11 13  1  0
 13 14  1  0
 14 15  2  0
 15 16  1  0
 16 17  1  0
 17 18  2  0
 18 19  1  0
 19 20  2  0
 20 21  1  0
 21 22  1  0
 21 23  2  0
  9  5  1  0
 23 14  1  0
 23 17  1  0
  1 24  1  0
  1 25  1  0
  1 26  1  0
  2 27  1  0
  2 28  1  0
  3 29  1  0
  4 30  1  0
  4 31  1  0
  6 32  1  0
  6 33  1  0
  7 34  1  0
  7 35  1  0
  8 36  1  0
  8 37  1  0
  9 38  1  0
  9 39  1  0
 10 40  1  0
 13 41  1  0
 13 42  1  0
 15 43  1  0
 16 44  1  0
 18 45  1  0
 19 46  1  0
 20 47  1  0
M  END
>  <Energy>  (55) 
109.03003035354871

>  <compound_id>  (55) 
4678

>  <target_id>  (55) 
1

>  <reference_id>  (55) 
93

>  <inspiration_ids>  (55) 
[93, 95]

>  <energy_score>  (55) 
15.581130285378379

>  <distance_score>  (55) 
11.096380687739677

>  <path>  (55) 
/opt/xchem-fragalysis-2/maxwin/BulkDock/SCRATCH/511018/C4678-P93/C4678-P93.minimised.mol

>  <scratch_subdir>  (55) 
/opt/xchem-fragalysis-2/maxwin/BulkDock/SCRATCH/511018/C4678-P93

>  <fragmenstein_runtime>  (55) 
15.264363288879395

>  <fragmenstein_outcome>  (55) 
too moved

>  <fragmenstein_mode>  (55) 
expansion

>  <fragmenstein_error>  (55) 


$$$$
C4678-P95
     RDKit          3D

 47 49  0  0  0  0  0  0  0  0999 V2000
   -3.3159   -1.9657    6.2644 C   0  0  0  0  0  0  0  0  0  0  0  0
   -2.3043   -1.3777    7.2344 C   0  0  0  0  0  0  0  0  0  0  0  0
   -2.3056   -1.4352    8.8423 C   0  0  0  0  0  0  0  0  0  0  0  0
   -3.8326   -0.4159    8.9362 C   0  0  0  0  0  0  0  0  0  0  0  0
   -5.0591   -0.4887    7.9316 N   0  0  0  0  0  0  0  0  0  0  0  0
   -5.7675   -1.7053    7.4787 C   0  0  0  0  0  0  0  0  0  0  0  0
   -7.2726   -1.4940    7.5510 C   0  0  0  0  0  0  0  0  0  0  0  0
   -7.3462   -0.0045    7.3383 C   0  0  0  0  0  0  0  0  0  0  0  0
   -6.1715    0.4354    8.1985 C   0  0  0  0  0  0  0  0  0  0  0  0
   -0.5374   -1.6954    9.5683 N   0  0  0  0  0  0  0  0  0  0  0  0
    0.0883   -1.3703   11.0179 C   0  0  0  0  0  0  0  0  0  0  0  0
   -0.4548   -0.9472   12.0362 O   0  0  0  0  0  0  0  0  0  0  0  0
    2.0556   -1.7809   11.1112 C   0  0  0  0  0  0  0  0  0  0  0  0
    3.4356   -2.9706   12.0659 C   0  0  0  0  0  0  0  0  0  0  0  0
    4.9438   -2.9105   12.1119 C   0  0  0  0  0  0  0  0  0  0  0  0
    5.6717   -2.5517   13.7389 N   0  0  0  0  0  0  0  0  0  0  0  0
    4.6593   -3.0573   14.6145 C   0  0  0  0  0  0  0  0  0  0  0  0
    4.3056   -3.5639   16.0441 C   0  0  0  0  0  0  0  0  0  0  0  0
    3.3452   -4.5606   16.3636 C   0  0  0  0  0  0  0  0  0  0  0  0
    2.6205   -5.1993   15.3685 C   0  0  0  0  0  0  0  0  0  0  0  0
    2.6325   -4.7504   14.0299 C   0  0  0  0  0  0  0  0  0  0  0  0
    2.1817   -5.8959   12.8304 Cl  0  0  0  0  0  0  0  0  0  0  0  0
    3.3411   -3.6061   13.4976 C   0  0  0  0  0  0  0  0  0  0  0  0
   -2.9031   -2.1237    5.2749 H   0  0  0  0  0  0  0  0  0  0  0  0
   -4.0165   -1.1963    5.9537 H   0  0  0  0  0  0  0  0  0  0  0  0
   -3.7212   -2.9215    6.5932 H   0  0  0  0  0  0  0  0  0  0  0  0
   -1.3695   -1.5698    6.7513 H   0  0  0  0  0  0  0  0  0  0  0  0
   -2.4505   -0.3330    7.1301 H   0  0  0  0  0  0  0  0  0  0  0  0
   -2.7140   -2.4414    8.8981 H   0  0  0  0  0  0  0  0  0  0  0  0
   -4.3128   -0.4450    9.9060 H   0  0  0  0  0  0  0  0  0  0  0  0
   -3.4457    0.6023    8.8206 H   0  0  0  0  0  0  0  0  0  0  0  0
   -5.4137   -2.6418    7.8585 H   0  0  0  0  0  0  0  0  0  0  0  0
   -5.6645   -1.8104    6.3942 H   0  0  0  0  0  0  0  0  0  0  0  0
   -7.6696   -1.7678    8.5275 H   0  0  0  0  0  0  0  0  0  0  0  0
   -7.8210   -2.0499    6.7844 H   0  0  0  0  0  0  0  0  0  0  0  0
   -8.2972    0.4195    7.6728 H   0  0  0  0  0  0  0  0  0  0  0  0
   -7.1883    0.2591    6.2860 H   0  0  0  0  0  0  0  0  0  0  0  0
   -6.5363    0.2785    9.2182 H   0  0  0  0  0  0  0  0  0  0  0  0
   -5.9120    1.4768    7.9947 H   0  0  0  0  0  0  0  0  0  0  0  0
    0.1980   -1.9444    8.9389 H   0  0  0  0  0  0  0  0  0  0  0  0
    2.5328   -1.9569   10.1764 H   0  0  0  0  0  0  0  0  0  0  0  0
    2.3257   -0.7277   11.2774 H   0  0  0  0  0  0  0  0  0  0  0  0
    5.7584   -2.5386   11.5663 H   0  0  0  0  0  0  0  0  0  0  0  0
    6.6560   -2.3313   13.8407 H   0  0  0  0  0  0  0  0  0  0  0  0
    4.3503   -2.8024   16.8360 H   0  0  0  0  0  0  0  0  0  0  0  0
    3.1651   -4.8098   17.4073 H   0  0  0  0  0  0  0  0  0  0  0  0
    2.0157   -6.0658   15.6293 H   0  0  0  0  0  0  0  0  0  0  0  0
  1  2  1  0
  2  3  1  0
  3  4  1  0
  4  5  1  0
  5  6  1  0
  6  7  1  0
  7  8  1  0
  8  9  1  0
  3 10  1  0
 10 11  1  0
 11 12  2  0
 11 13  1  0
 13 14  1  0
 14 15  2  0
 15 16  1  0
 16 17  1  0
 17 18  2  0
 18 19  1  0
 19 20  2  0
 20 21  1  0
 21 22  1  0
 21 23  2  0
  9  5  1  0
 23 14  1  0
 23 17  1  0
  1 24  1  0
  1 25  1  0
  1 26  1  0
  2 27  1  0
  2 28  1  0
  3 29  1  0
  4 30  1  0
  4 31  1  0
  6 32  1  0
  6 33  1  0
  7 34  1  0
  7 35  1  0
  8 36  1  0
  8 37  1  0
  9 38  1  0
  9 39  1  0
 10 40  1  0
 13 41  1  0
 13 42  1  0
 15 43  1  0
 16 44  1  0
 18 45  1  0
 19 46  1  0
 20 47  1  0
M  END
>  <Energy>  (56) 
597.88660491832638

>  <compound_id>  (56) 
4678

>  <target_id>  (56) 
1

>  <reference_id>  (56) 
95

>  <inspiration_ids>  (56) 
[93, 95]

>  <energy_score>  (56) 
504.43770485014807

>  <distance_score>  (56) 
8.280887324294984

>  <path>  (56) 
/opt/xchem-fragalysis-2/maxwin/BulkDock/SCRATCH/511018/C4678-P95/C4678-P95.minimised.mol

>  <scratch_subdir>  (56) 
/opt/xchem-fragalysis-2/maxwin/BulkDock/SCRATCH/511018/C4678-P95

>  <fragmenstein_runtime>  (56) 
9.809348821640015

>  <fragmenstein_outcome>  (56) 
too moved

>  <fragmenstein_mode>  (56) 
expansion

>  <fragmenstein_error>  (56) 


$$$$
C4679-P93
     RDKit          3D

 47 49  0  0  0  0  0  0  0  0999 V2000
   -1.8254   -1.5452    7.7555 C   0  0  0  0  0  0  0  0  0  0  0  0
   -1.2391   -0.9947    9.3609 C   0  0  0  0  0  0  0  0  0  0  0  0
   -2.5761    0.0770    9.0187 C   0  0  0  0  0  0  0  0  0  0  0  0
   -4.1005   -0.5898    8.7612 C   0  0  0  0  0  0  0  0  0  0  0  0
   -4.9684   -0.3897    7.5838 N   0  0  0  0  0  0  0  0  0  0  0  0
   -5.6065    0.9086    7.3478 C   0  0  0  0  0  0  0  0  0  0  0  0
   -7.1066    0.6586    7.2392 C   0  0  0  0  0  0  0  0  0  0  0  0
   -7.1653   -0.7630    6.7283 C   0  0  0  0  0  0  0  0  0  0  0  0
   -6.0480   -1.3981    7.5274 C   0  0  0  0  0  0  0  0  0  0  0  0
    0.8000   -0.7340    9.9919 N   0  0  0  0  0  0  0  0  0  0  0  0
    2.2328   -1.9070   10.6925 C   0  0  0  0  0  0  0  0  0  0  0  0
    2.2974   -3.1482   10.8604 O   0  0  0  0  0  0  0  0  0  0  0  0
    4.1329   -0.9550   11.3610 C   0  0  0  0  0  0  0  0  0  0  0  0
    6.0032   -1.0476   12.2051 C   0  0  0  0  0  0  0  0  0  0  0  0
    6.1425   -2.2705   12.7776 C   0  0  0  0  0  0  0  0  0  0  0  0
    6.6443   -2.2964   14.0136 N   0  0  0  0  0  0  0  0  0  0  0  0
    7.6973   -1.4979   14.0510 C   0  0  0  0  0  0  0  0  0  0  0  0
    8.5530   -1.4735   15.1525 C   0  0  0  0  0  0  0  0  0  0  0  0
    9.6280   -0.6783   15.3567 C   0  0  0  0  0  0  0  0  0  0  0  0
    9.8587    0.2094   14.3827 C   0  0  0  0  0  0  0  0  0  0  0  0
    9.0423    0.2790   13.1759 C   0  0  0  0  0  0  0  0  0  0  0  0
   10.3876    1.5683   12.2544 Br  0  0  0  0  0  0  0  0  0  0  0  0
    7.6564   -0.6342   12.8850 C   0  0  0  0  0  0  0  0  0  0  0  0
   -2.4110   -2.4729    7.8406 H   0  0  0  0  0  0  0  0  0  0  0  0
   -1.0693   -1.5225    6.9996 H   0  0  0  0  0  0  0  0  0  0  0  0
   -2.6129   -0.9731    7.2592 H   0  0  0  0  0  0  0  0  0  0  0  0
   -2.0414   -1.7123    9.4882 H   0  0  0  0  0  0  0  0  0  0  0  0
   -2.0684    0.3801    8.1489 H   0  0  0  0  0  0  0  0  0  0  0  0
   -2.8123    1.0503    9.3347 H   0  0  0  0  0  0  0  0  0  0  0  0
   -3.9628   -1.6631    8.7801 H   0  0  0  0  0  0  0  0  0  0  0  0
   -4.6568   -0.4185    9.6691 H   0  0  0  0  0  0  0  0  0  0  0  0
   -5.2874    1.2743    6.3651 H   0  0  0  0  0  0  0  0  0  0  0  0
   -5.3634    1.6875    8.0686 H   0  0  0  0  0  0  0  0  0  0  0  0
   -7.5761    0.7279    8.2279 H   0  0  0  0  0  0  0  0  0  0  0  0
   -7.6033    1.3638    6.5667 H   0  0  0  0  0  0  0  0  0  0  0  0
   -8.1357   -1.2333    6.9100 H   0  0  0  0  0  0  0  0  0  0  0  0
   -6.9501   -0.7991    5.6541 H   0  0  0  0  0  0  0  0  0  0  0  0
   -5.7052   -2.3382    7.0854 H   0  0  0  0  0  0  0  0  0  0  0  0
   -6.4395   -1.5860    8.5309 H   0  0  0  0  0  0  0  0  0  0  0  0
    1.0963    0.1903    9.9002 H   0  0  0  0  0  0  0  0  0  0  0  0
    3.8398    0.1308   11.2572 H   0  0  0  0  0  0  0  0  0  0  0  0
    3.9787   -2.0339   11.7110 H   0  0  0  0  0  0  0  0  0  0  0  0
    5.4284   -3.0523   12.5391 H   0  0  0  0  0  0  0  0  0  0  0  0
    6.4037   -2.9795   14.7095 H   0  0  0  0  0  0  0  0  0  0  0  0
    8.2720   -2.1694   15.8798 H   0  0  0  0  0  0  0  0  0  0  0  0
   10.3169   -0.7527   16.1757 H   0  0  0  0  0  0  0  0  0  0  0  0
   10.7438    0.8239   14.5461 H   0  0  0  0  0  0  0  0  0  0  0  0
  1  2  1  0
  2  3  1  0
  3  4  1  0
  4  5  1  0
  5  6  1  0
  6  7  1  0
  7  8  1  0
  8  9  1  0
  2 10  1  0
 10 11  1  0
 11 12  2  0
 11 13  1  0
 13 14  1  0
 14 15  2  0
 15 16  1  0
 16 17  1  0
 17 18  2  0
 18 19  1  0
 19 20  2  0
 20 21  1  0
 21 22  1  0
 21 23  2  0
  9  5  1  0
 23 14  1  0
 23 17  1  0
  1 24  1  0
  1 25  1  0
  1 26  1  0
  2 27  1  0
  3 28  1  0
  3 29  1  0
  4 30  1  0
  4 31  1  0
  6 32  1  0
  6 33  1  0
  7 34  1  0
  7 35  1  0
  8 36  1  0
  8 37  1  0
  9 38  1  0
  9 39  1  0
 10 40  1  0
 13 41  1  0
 13 42  1  0
 15 43  1  0
 16 44  1  0
 18 45  1  0
 19 46  1  0
 20 47  1  0
M  END
>  <Energy>  (57) 
1045.7289905725365

>  <compound_id>  (57) 
4679

>  <target_id>  (57) 
1

>  <reference_id>  (57) 
93

>  <inspiration_ids>  (57) 
[93, 95]

>  <energy_score>  (57) 
973.4041327122272

>  <distance_score>  (57) 
6.3309691079979515

>  <path>  (57) 
/opt/xchem-fragalysis-2/maxwin/BulkDock/SCRATCH/511018/C4679-P93/C4679-P93.minimised.mol

>  <scratch_subdir>  (57) 
/opt/xchem-fragalysis-2/maxwin/BulkDock/SCRATCH/511018/C4679-P93

>  <fragmenstein_runtime>  (57) 
10.626217365264893

>  <fragmenstein_outcome>  (57) 
too moved

>  <fragmenstein_mode>  (57) 
expansion

>  <fragmenstein_error>  (57) 


$$$$
C4679-P95
     RDKit          3D

 47 49  0  0  0  0  0  0  0  0999 V2000
   -2.1151   -1.3159    7.6571 C   0  0  0  0  0  0  0  0  0  0  0  0
   -1.8628   -1.1575    9.2411 C   0  0  0  0  0  0  0  0  0  0  0  0
   -3.4773   -0.1594    9.1252 C   0  0  0  0  0  0  0  0  0  0  0  0
   -4.6730   -0.3807    8.0067 C   0  0  0  0  0  0  0  0  0  0  0  0
   -5.7210   -1.4125    8.0393 N   0  0  0  0  0  0  0  0  0  0  0  0
   -7.0646   -0.8113    7.8955 C   0  0  0  0  0  0  0  0  0  0  0  0
   -7.9664   -1.9531    7.4497 C   0  0  0  0  0  0  0  0  0  0  0  0
   -7.0457   -2.9181    6.7240 C   0  0  0  0  0  0  0  0  0  0  0  0
   -5.6530   -2.3144    6.8631 C   0  0  0  0  0  0  0  0  0  0  0  0
   -0.2109   -1.1360   10.5143 N   0  0  0  0  0  0  0  0  0  0  0  0
    1.5662   -1.3254   10.1956 C   0  0  0  0  0  0  0  0  0  0  0  0
    1.6955   -1.4824    9.1307 O   0  0  0  0  0  0  0  0  0  0  0  0
    3.5078   -1.3496   11.1251 C   0  0  0  0  0  0  0  0  0  0  0  0
    5.4530   -0.7533   11.8972 C   0  0  0  0  0  0  0  0  0  0  0  0
    5.8578   -2.0831   12.2290 C   0  0  0  0  0  0  0  0  0  0  0  0
    6.1498   -2.1763   13.6320 N   0  0  0  0  0  0  0  0  0  0  0  0
    7.3072   -1.6163   13.7681 C   0  0  0  0  0  0  0  0  0  0  0  0
    8.2209   -1.8736   14.8012 C   0  0  0  0  0  0  0  0  0  0  0  0
    9.1243   -0.9489   15.2252 C   0  0  0  0  0  0  0  0  0  0  0  0
    9.1836    0.1886   14.5023 C   0  0  0  0  0  0  0  0  0  0  0  0
    8.4617    0.3038   13.2373 C   0  0  0  0  0  0  0  0  0  0  0  0
    9.9235    1.5134   12.3515 Br  0  0  0  0  0  0  0  0  0  0  0  0
    7.1785   -0.6885   12.7108 C   0  0  0  0  0  0  0  0  0  0  0  0
   -2.4359   -0.3569    7.3290 H   0  0  0  0  0  0  0  0  0  0  0  0
   -2.9128   -2.0443    7.4551 H   0  0  0  0  0  0  0  0  0  0  0  0
   -1.3897   -1.5220    6.8986 H   0  0  0  0  0  0  0  0  0  0  0  0
   -2.2838   -2.1520    9.2381 H   0  0  0  0  0  0  0  0  0  0  0  0
   -4.0925   -0.1440   10.0230 H   0  0  0  0  0  0  0  0  0  0  0  0
   -3.1415    0.8531    8.8946 H   0  0  0  0  0  0  0  0  0  0  0  0
   -4.2816   -0.4136    6.9966 H   0  0  0  0  0  0  0  0  0  0  0  0
   -5.1854    0.5910    8.0470 H   0  0  0  0  0  0  0  0  0  0  0  0
   -7.0758   -0.0354    7.1176 H   0  0  0  0  0  0  0  0  0  0  0  0
   -7.4085   -0.3617    8.8319 H   0  0  0  0  0  0  0  0  0  0  0  0
   -8.4277   -2.4531    8.3065 H   0  0  0  0  0  0  0  0  0  0  0  0
   -8.7741   -1.5977    6.8017 H   0  0  0  0  0  0  0  0  0  0  0  0
   -7.1013   -3.9129    7.1782 H   0  0  0  0  0  0  0  0  0  0  0  0
   -7.3259   -3.0230    5.6704 H   0  0  0  0  0  0  0  0  0  0  0  0
   -5.4309   -1.7662    5.9376 H   0  0  0  0  0  0  0  0  0  0  0  0
   -4.8919   -3.0894    6.9850 H   0  0  0  0  0  0  0  0  0  0  0  0
   -0.3334   -1.0764   11.5214 H   0  0  0  0  0  0  0  0  0  0  0  0
    3.0322   -0.2964   11.3328 H   0  0  0  0  0  0  0  0  0  0  0  0
    3.5145   -2.4323   11.3301 H   0  0  0  0  0  0  0  0  0  0  0  0
    5.2902   -2.9501   11.8761 H   0  0  0  0  0  0  0  0  0  0  0  0
    5.7550   -2.7989   14.3142 H   0  0  0  0  0  0  0  0  0  0  0  0
    8.1545   -2.8291   15.2823 H   0  0  0  0  0  0  0  0  0  0  0  0
    9.8101   -1.1224   16.0387 H   0  0  0  0  0  0  0  0  0  0  0  0
    9.9313    0.9174   14.8118 H   0  0  0  0  0  0  0  0  0  0  0  0
  1  2  1  0
  2  3  1  0
  3  4  1  0
  4  5  1  0
  5  6  1  0
  6  7  1  0
  7  8  1  0
  8  9  1  0
  2 10  1  0
 10 11  1  0
 11 12  2  0
 11 13  1  0
 13 14  1  0
 14 15  2  0
 15 16  1  0
 16 17  1  0
 17 18  2  0
 18 19  1  0
 19 20  2  0
 20 21  1  0
 21 22  1  0
 21 23  2  0
  9  5  1  0
 23 14  1  0
 23 17  1  0
  1 24  1  0
  1 25  1  0
  1 26  1  0
  2 27  1  0
  3 28  1  0
  3 29  1  0
  4 30  1  0
  4 31  1  0
  6 32  1  0
  6 33  1  0
  7 34  1  0
  7 35  1  0
  8 36  1  0
  8 37  1  0
  9 38  1  0
  9 39  1  0
 10 40  1  0
 13 41  1  0
 13 42  1  0
 15 43  1  0
 16 44  1  0
 18 45  1  0
 19 46  1  0
 20 47  1  0
M  END
>  <Energy>  (58) 
1034.6651453926358

>  <compound_id>  (58) 
4679

>  <target_id>  (58) 
1

>  <reference_id>  (58) 
95

>  <inspiration_ids>  (58) 
[93, 95]

>  <energy_score>  (58) 
962.3402875323436

>  <distance_score>  (58) 
6.303086667037896

>  <path>  (58) 
/opt/xchem-fragalysis-2/maxwin/BulkDock/SCRATCH/511018/C4679-P95/C4679-P95.minimised.mol

>  <scratch_subdir>  (58) 
/opt/xchem-fragalysis-2/maxwin/BulkDock/SCRATCH/511018/C4679-P95

>  <fragmenstein_runtime>  (58) 
10.229156494140625

>  <fragmenstein_outcome>  (58) 
too moved

>  <fragmenstein_mode>  (58) 
expansion

>  <fragmenstein_error>  (58) 


$$$$
C4680-P93
     RDKit          3D

 50 52  0  0  0  0  0  0  0  0999 V2000
    1.7239    2.5490    7.0359 C   0  0  0  0  0  0  0  0  0  0  0  0
    2.4039    1.9020    8.2338 C   0  0  0  0  0  0  0  0  0  0  0  0
    3.2424    2.7214    9.2820 C   0  0  0  0  0  0  0  0  0  0  0  0
    2.3772    3.7557   10.1254 C   0  0  0  0  0  0  0  0  0  0  0  0
    1.0424    4.1353    9.5795 N   0  0  0  0  0  0  0  0  0  0  0  0
    0.0481    4.6447   10.5415 C   0  0  0  0  0  0  0  0  0  0  0  0
   -1.1319    4.9254    9.6150 C   0  0  0  0  0  0  0  0  0  0  0  0
   -0.4687    5.3835    8.3195 C   0  0  0  0  0  0  0  0  0  0  0  0
    1.0331    5.2051    8.5756 C   0  0  0  0  0  0  0  0  0  0  0  0
    4.3092    1.7878    9.9983 N   0  0  0  0  0  0  0  0  0  0  0  0
    5.5289    1.0792    9.4537 C   0  0  0  0  0  0  0  0  0  0  0  0
    6.0028    1.1311    8.3448 O   0  0  0  0  0  0  0  0  0  0  0  0
    6.5402   -0.3002   10.5692 C   0  0  0  0  0  0  0  0  0  0  0  0
    7.4393   -0.5607   12.2289 C   0  0  0  0  0  0  0  0  0  0  0  0
    6.9612   -1.5932   13.0196 C   0  0  0  0  0  0  0  0  0  0  0  0
    7.6234   -1.7742   14.2026 N   0  0  0  0  0  0  0  0  0  0  0  0
    8.5690   -0.7921   14.4384 C   0  0  0  0  0  0  0  0  0  0  0  0
    9.3930   -0.7271   15.5499 C   0  0  0  0  0  0  0  0  0  0  0  0
   10.4275    0.1635   15.6518 C   0  0  0  0  0  0  0  0  0  0  0  0
   10.7044    0.9447   14.5677 C   0  0  0  0  0  0  0  0  0  0  0  0
    9.9808    0.8625   13.3340 C   0  0  0  0  0  0  0  0  0  0  0  0
   10.7919    1.6994   12.3308 C   0  0  0  0  0  0  0  0  0  0  0  0
    8.7258    0.0072   13.2663 C   0  0  0  0  0  0  0  0  0  0  0  0
    2.3375    3.3542    6.6239 H   0  0  0  0  0  0  0  0  0  0  0  0
    0.7230    2.9021    7.2692 H   0  0  0  0  0  0  0  0  0  0  0  0
    1.6337    1.8055    6.2408 H   0  0  0  0  0  0  0  0  0  0  0  0
    3.1296    1.2650    7.7350 H   0  0  0  0  0  0  0  0  0  0  0  0
    1.6856    1.2786    8.7596 H   0  0  0  0  0  0  0  0  0  0  0  0
    3.8990    3.3473    8.6601 H   0  0  0  0  0  0  0  0  0  0  0  0
    2.9806    4.6630   10.2675 H   0  0  0  0  0  0  0  0  0  0  0  0
    2.2894    3.3534   11.1399 H   0  0  0  0  0  0  0  0  0  0  0  0
   -0.2574    3.9728   11.3446 H   0  0  0  0  0  0  0  0  0  0  0  0
    0.3996    5.5699   11.0181 H   0  0  0  0  0  0  0  0  0  0  0  0
   -1.8000    5.6882   10.0259 H   0  0  0  0  0  0  0  0  0  0  0  0
   -1.7162    4.0145    9.4371 H   0  0  0  0  0  0  0  0  0  0  0  0
   -0.8103    4.7698    7.4797 H   0  0  0  0  0  0  0  0  0  0  0  0
   -0.7050    6.4284    8.0936 H   0  0  0  0  0  0  0  0  0  0  0  0
    1.4551    6.1325    8.9868 H   0  0  0  0  0  0  0  0  0  0  0  0
    1.5776    4.9995    7.6566 H   0  0  0  0  0  0  0  0  0  0  0  0
    4.2328    1.5923   10.9919 H   0  0  0  0  0  0  0  0  0  0  0  0
    5.6210   -0.6373   11.0517 H   0  0  0  0  0  0  0  0  0  0  0  0
    7.0611   -0.9997    9.9507 H   0  0  0  0  0  0  0  0  0  0  0  0
    6.1677   -2.2549   12.7832 H   0  0  0  0  0  0  0  0  0  0  0  0
    7.4469   -2.5379   14.8343 H   0  0  0  0  0  0  0  0  0  0  0  0
    9.2410   -1.4666   16.2894 H   0  0  0  0  0  0  0  0  0  0  0  0
   11.0735    0.2002   16.5198 H   0  0  0  0  0  0  0  0  0  0  0  0
   11.5748    1.5998   14.6458 H   0  0  0  0  0  0  0  0  0  0  0  0
   10.6113    1.5440   11.2782 H   0  0  0  0  0  0  0  0  0  0  0  0
   10.6522    2.7644   12.5503 H   0  0  0  0  0  0  0  0  0  0  0  0
   11.8614    1.4720   12.4392 H   0  0  0  0  0  0  0  0  0  0  0  0
  1  2  1  0
  2  3  1  0
  3  4  1  0
  4  5  1  0
  5  6  1  0
  6  7  1  0
  7  8  1  0
  8  9  1  0
  3 10  1  0
 10 11  1  0
 11 12  2  0
 11 13  1  0
 13 14  1  0
 14 15  2  0
 15 16  1  0
 16 17  1  0
 17 18  2  0
 18 19  1  0
 19 20  2  0
 20 21  1  0
 21 22  1  0
 21 23  2  0
  9  5  1  0
 23 14  1  0
 23 17  1  0
  1 24  1  0
  1 25  1  0
  1 26  1  0
  2 27  1  0
  2 28  1  0
  3 29  1  0
  4 30  1  0
  4 31  1  0
  6 32  1  0
  6 33  1  0
  7 34  1  0
  7 35  1  0
  8 36  1  0
  8 37  1  0
  9 38  1  0
  9 39  1  0
 10 40  1  0
 13 41  1  0
 13 42  1  0
 15 43  1  0
 16 44  1  0
 18 45  1  0
 19 46  1  0
 20 47  1  0
 22 48  1  0
 22 49  1  0
 22 50  1  0
M  END
>  <Energy>  (59) 
289.42901292549874

>  <compound_id>  (59) 
4680

>  <target_id>  (59) 
1

>  <reference_id>  (59) 
93

>  <inspiration_ids>  (59) 
[93, 95]

>  <energy_score>  (59) 
201.8886289222462

>  <distance_score>  (59) 
9.730983549124543

>  <path>  (59) 
/opt/xchem-fragalysis-2/maxwin/BulkDock/SCRATCH/511018/C4680-P93/C4680-P93.minimised.mol

>  <scratch_subdir>  (59) 
/opt/xchem-fragalysis-2/maxwin/BulkDock/SCRATCH/511018/C4680-P93

>  <fragmenstein_runtime>  (59) 
14.452575206756592

>  <fragmenstein_outcome>  (59) 
too moved

>  <fragmenstein_mode>  (59) 
expansion

>  <fragmenstein_error>  (59) 


$$$$
C4680-P95
     RDKit          3D

 50 52  0  0  0  0  0  0  0  0999 V2000
   -3.0499   -2.7956    8.3409 C   0  0  0  0  0  0  0  0  0  0  0  0
   -1.8217   -1.8806    8.3882 C   0  0  0  0  0  0  0  0  0  0  0  0
   -0.5570   -1.2949    9.7536 C   0  0  0  0  0  0  0  0  0  0  0  0
   -2.0859   -0.0529    9.1743 C   0  0  0  0  0  0  0  0  0  0  0  0
   -3.5727   -0.2160    8.1134 N   0  0  0  0  0  0  0  0  0  0  0  0
   -3.9801   -0.8614    6.7795 C   0  0  0  0  0  0  0  0  0  0  0  0
   -5.4338   -0.4403    6.4880 C   0  0  0  0  0  0  0  0  0  0  0  0
   -5.9964   -0.3898    7.8799 C   0  0  0  0  0  0  0  0  0  0  0  0
   -4.8258    0.1708    8.6787 C   0  0  0  0  0  0  0  0  0  0  0  0
    1.1561   -1.4051   10.8597 N   0  0  0  0  0  0  0  0  0  0  0  0
    2.8749   -2.2019   10.5113 C   0  0  0  0  0  0  0  0  0  0  0  0
    3.1262   -2.6969    9.4016 O   0  0  0  0  0  0  0  0  0  0  0  0
    4.4235   -2.5803   11.7715 C   0  0  0  0  0  0  0  0  0  0  0  0
    6.0618   -1.8712   12.7973 C   0  0  0  0  0  0  0  0  0  0  0  0
    5.9701   -2.2607   14.1765 C   0  0  0  0  0  0  0  0  0  0  0  0
    6.9965   -1.7576   14.8370 N   0  0  0  0  0  0  0  0  0  0  0  0
    8.0721   -2.0916   14.1067 C   0  0  0  0  0  0  0  0  0  0  0  0
    9.3637   -2.1582   14.7227 C   0  0  0  0  0  0  0  0  0  0  0  0
    9.7315   -1.0710   15.4742 C   0  0  0  0  0  0  0  0  0  0  0  0
    9.0806    0.0888   15.1946 C   0  0  0  0  0  0  0  0  0  0  0  0
    8.5134    0.1201   13.8564 C   0  0  0  0  0  0  0  0  0  0  0  0
    9.6671    0.9970   13.1641 C   0  0  0  0  0  0  0  0  0  0  0  0
    7.5944   -1.0809   13.0806 C   0  0  0  0  0  0  0  0  0  0  0  0
   -3.1773   -3.2226    7.3342 H   0  0  0  0  0  0  0  0  0  0  0  0
   -3.0660   -3.7497    8.8391 H   0  0  0  0  0  0  0  0  0  0  0  0
   -3.8981   -2.2158    8.6420 H   0  0  0  0  0  0  0  0  0  0  0  0
   -1.9260   -1.0283    7.7173 H   0  0  0  0  0  0  0  0  0  0  0  0
   -1.6034   -1.9534    7.2824 H   0  0  0  0  0  0  0  0  0  0  0  0
   -0.9922   -1.4957   10.7085 H   0  0  0  0  0  0  0  0  0  0  0  0
   -1.8352    0.9826    8.9567 H   0  0  0  0  0  0  0  0  0  0  0  0
   -2.8118    0.0674    9.9041 H   0  0  0  0  0  0  0  0  0  0  0  0
   -3.3201   -0.7140    5.9327 H   0  0  0  0  0  0  0  0  0  0  0  0
   -4.1512   -1.9247    6.7479 H   0  0  0  0  0  0  0  0  0  0  0  0
   -5.9619   -1.1680    5.8624 H   0  0  0  0  0  0  0  0  0  0  0  0
   -5.5126    0.5330    5.9962 H   0  0  0  0  0  0  0  0  0  0  0  0
   -6.8904    0.2363    7.9510 H   0  0  0  0  0  0  0  0  0  0  0  0
   -6.2539   -1.3971    8.2214 H   0  0  0  0  0  0  0  0  0  0  0  0
   -4.8337    1.2450    8.4999 H   0  0  0  0  0  0  0  0  0  0  0  0
   -4.8935   -0.1588    9.7086 H   0  0  0  0  0  0  0  0  0  0  0  0
    1.1716   -0.9865   11.7813 H   0  0  0  0  0  0  0  0  0  0  0  0
    3.8124   -3.1273   12.5320 H   0  0  0  0  0  0  0  0  0  0  0  0
    4.8573   -3.4881   11.3607 H   0  0  0  0  0  0  0  0  0  0  0  0
    5.1542   -2.6904   14.7276 H   0  0  0  0  0  0  0  0  0  0  0  0
    7.0711   -1.3341   15.7513 H   0  0  0  0  0  0  0  0  0  0  0  0
    9.9031   -3.0971   14.8047 H   0  0  0  0  0  0  0  0  0  0  0  0
   10.5828   -1.1235   16.1351 H   0  0  0  0  0  0  0  0  0  0  0  0
    9.4319    1.0005   15.6791 H   0  0  0  0  0  0  0  0  0  0  0  0
    9.9813    1.8151   13.8286 H   0  0  0  0  0  0  0  0  0  0  0  0
   10.5627    0.4051   12.9518 H   0  0  0  0  0  0  0  0  0  0  0  0
    9.3506    1.5194   12.2907 H   0  0  0  0  0  0  0  0  0  0  0  0
  1  2  1  0
  2  3  1  0
  3  4  1  0
  4  5  1  0
  5  6  1  0
  6  7  1  0
  7  8  1  0
  8  9  1  0
  3 10  1  0
 10 11  1  0
 11 12  2  0
 11 13  1  0
 13 14  1  0
 14 15  2  0
 15 16  1  0
 16 17  1  0
 17 18  2  0
 18 19  1  0
 19 20  2  0
 20 21  1  0
 21 22  1  0
 21 23  2  0
  9  5  1  0
 23 14  1  0
 23 17  1  0
  1 24  1  0
  1 25  1  0
  1 26  1  0
  2 27  1  0
  2 28  1  0
  3 29  1  0
  4 30  1  0
  4 31  1  0
  6 32  1  0
  6 33  1  0
  7 34  1  0
  7 35  1  0
  8 36  1  0
  8 37  1  0
  9 38  1  0
  9 39  1  0
 10 40  1  0
 13 41  1  0
 13 42  1  0
 15 43  1  0
 16 44  1  0
 18 45  1  0
 19 46  1  0
 20 47  1  0
 22 48  1  0
 22 49  1  0
 22 50  1  0
M  END
>  <Energy>  (60) 
1165.9723383328778

>  <compound_id>  (60) 
4680

>  <target_id>  (60) 
1

>  <reference_id>  (60) 
95

>  <inspiration_ids>  (60) 
[93, 95]

>  <energy_score>  (60) 
1078.4319543296301

>  <distance_score>  (60) 
6.701829042139588

>  <path>  (60) 
/opt/xchem-fragalysis-2/maxwin/BulkDock/SCRATCH/511018/C4680-P95/C4680-P95.minimised.mol

>  <scratch_subdir>  (60) 
/opt/xchem-fragalysis-2/maxwin/BulkDock/SCRATCH/511018/C4680-P95

>  <fragmenstein_runtime>  (60) 
9.030963897705078

>  <fragmenstein_outcome>  (60) 
too moved

>  <fragmenstein_mode>  (60) 
expansion

>  <fragmenstein_error>  (60) 


$$$$
C4681-P93
     RDKit          3D

 50 52  0  0  0  0  0  0  0  0999 V2000
   10.0964    1.2221   12.6970 C   0  0  0  0  0  0  0  0  0  0  0  0
    8.9583    0.2534   13.2664 C   0  0  0  0  0  0  0  0  0  0  0  0
    9.6648    0.0053   14.5550 C   0  0  0  0  0  0  0  0  0  0  0  0
    9.4753   -1.0946   15.3069 C   0  0  0  0  0  0  0  0  0  0  0  0
    8.4327   -1.8655   14.9300 C   0  0  0  0  0  0  0  0  0  0  0  0
    7.5768   -1.5649   13.8718 C   0  0  0  0  0  0  0  0  0  0  0  0
    6.4570   -2.2119   13.7684 N   0  0  0  0  0  0  0  0  0  0  0  0
    6.0495   -2.0887   12.4830 C   0  0  0  0  0  0  0  0  0  0  0  0
    5.8607   -0.7367   11.9756 C   0  0  0  0  0  0  0  0  0  0  0  0
    4.1532    0.1595   11.0705 C   0  0  0  0  0  0  0  0  0  0  0  0
    2.2791    0.3609   10.0190 C   0  0  0  0  0  0  0  0  0  0  0  0
    2.2639    1.4378    9.3831 O   0  0  0  0  0  0  0  0  0  0  0  0
    0.6954   -0.8102   10.1031 N   0  0  0  0  0  0  0  0  0  0  0  0
   -1.2706   -0.6418    9.2582 C   0  0  0  0  0  0  0  0  0  0  0  0
   -1.8774   -1.4389    8.0209 C   0  0  0  0  0  0  0  0  0  0  0  0
   -3.0571    0.1033    9.1689 C   0  0  0  0  0  0  0  0  0  0  0  0
   -4.3379   -0.5574    8.1641 C   0  0  0  0  0  0  0  0  0  0  0  0
   -5.7539   -0.1476    8.2790 N   0  0  0  0  0  0  0  0  0  0  0  0
   -6.6488   -1.1861    7.6973 C   0  0  0  0  0  0  0  0  0  0  0  0
   -7.5063   -0.5235    6.6324 C   0  0  0  0  0  0  0  0  0  0  0  0
   -6.6955    0.6880    6.2405 C   0  0  0  0  0  0  0  0  0  0  0  0
   -6.0761    1.0986    7.5615 C   0  0  0  0  0  0  0  0  0  0  0  0
    7.5631   -0.5797   12.8144 C   0  0  0  0  0  0  0  0  0  0  0  0
   11.0535    0.6770   12.7475 H   0  0  0  0  0  0  0  0  0  0  0  0
   10.1508    1.6377   11.7059 H   0  0  0  0  0  0  0  0  0  0  0  0
   10.1753    2.1027   13.3536 H   0  0  0  0  0  0  0  0  0  0  0  0
   10.5330    0.6050   14.8407 H   0  0  0  0  0  0  0  0  0  0  0  0
   10.2081   -1.3877   16.0352 H   0  0  0  0  0  0  0  0  0  0  0  0
    8.2281   -2.8204   15.3574 H   0  0  0  0  0  0  0  0  0  0  0  0
    6.1504   -2.9315   14.4016 H   0  0  0  0  0  0  0  0  0  0  0  0
    5.3726   -2.9403   12.3156 H   0  0  0  0  0  0  0  0  0  0  0  0
    4.6792    0.5376   10.1905 H   0  0  0  0  0  0  0  0  0  0  0  0
    4.0557   -0.8628   11.3800 H   0  0  0  0  0  0  0  0  0  0  0  0
    0.9311   -1.6271   10.5696 H   0  0  0  0  0  0  0  0  0  0  0  0
   -1.5018   -1.0912   10.1265 H   0  0  0  0  0  0  0  0  0  0  0  0
   -2.4279   -0.7420    7.4358 H   0  0  0  0  0  0  0  0  0  0  0  0
   -2.5323   -2.2750    8.2510 H   0  0  0  0  0  0  0  0  0  0  0  0
   -1.2446   -1.5783    7.1825 H   0  0  0  0  0  0  0  0  0  0  0  0
   -3.0300    1.1723    9.1286 H   0  0  0  0  0  0  0  0  0  0  0  0
   -3.6946   -0.0598   10.0221 H   0  0  0  0  0  0  0  0  0  0  0  0
   -4.1209   -0.5180    7.0959 H   0  0  0  0  0  0  0  0  0  0  0  0
   -4.3445   -1.6044    8.4576 H   0  0  0  0  0  0  0  0  0  0  0  0
   -6.0899   -2.0116    7.2387 H   0  0  0  0  0  0  0  0  0  0  0  0
   -7.2832   -1.6105    8.4790 H   0  0  0  0  0  0  0  0  0  0  0  0
   -7.7068   -1.1822    5.7824 H   0  0  0  0  0  0  0  0  0  0  0  0
   -8.4662   -0.2108    7.0608 H   0  0  0  0  0  0  0  0  0  0  0  0
   -7.3145    1.4771    5.8041 H   0  0  0  0  0  0  0  0  0  0  0  0
   -5.9189    0.4180    5.5185 H   0  0  0  0  0  0  0  0  0  0  0  0
   -6.8363    1.6339    8.1441 H   0  0  0  0  0  0  0  0  0  0  0  0
   -5.2394    1.7894    7.4507 H   0  0  0  0  0  0  0  0  0  0  0  0
  1  2  1  0
  2  3  2  0
  3  4  1  0
  4  5  2  0
  5  6  1  0
  6  7  1  0
  7  8  1  0
  8  9  2  0
  9 10  1  0
 10 11  1  0
 11 12  2  0
 11 13  1  0
 13 14  1  0
 14 15  1  0
 14 16  1  0
 16 17  1  0
 17 18  1  0
 18 19  1  0
 19 20  1  0
 20 21  1  0
 21 22  1  0
  9 23  1  0
 23  2  1  0
 23  6  2  0
 22 18  1  0
  1 24  1  0
  1 25  1  0
  1 26  1  0
  3 27  1  0
  4 28  1  0
  5 29  1  0
  7 30  1  0
  8 31  1  0
 10 32  1  0
 10 33  1  0
 13 34  1  0
 14 35  1  0
 15 36  1  0
 15 37  1  0
 15 38  1  0
 16 39  1  0
 16 40  1  0
 17 41  1  0
 17 42  1  0
 19 43  1  0
 19 44  1  0
 20 45  1  0
 20 46  1  0
 21 47  1  0
 21 48  1  0
 22 49  1  0
 22 50  1  0
M  END
>  <Energy>  (61) 
1025.5090629872427

>  <compound_id>  (61) 
4681

>  <target_id>  (61) 
1

>  <reference_id>  (61) 
93

>  <inspiration_ids>  (61) 
[93, 95]

>  <energy_score>  (61) 
954.9479622744955

>  <distance_score>  (61) 
6.264709510434246

>  <path>  (61) 
/opt/xchem-fragalysis-2/maxwin/BulkDock/SCRATCH/511018/C4681-P93/C4681-P93.minimised.mol

>  <scratch_subdir>  (61) 
/opt/xchem-fragalysis-2/maxwin/BulkDock/SCRATCH/511018/C4681-P93

>  <fragmenstein_runtime>  (61) 
12.01546049118042

>  <fragmenstein_outcome>  (61) 
too moved

>  <fragmenstein_mode>  (61) 
expansion

>  <fragmenstein_error>  (61) 


$$$$
C4681-P95
     RDKit          3D

 50 52  0  0  0  0  0  0  0  0999 V2000
    7.2545   -0.5186   11.5146 C   0  0  0  0  0  0  0  0  0  0  0  0
    6.6939   -1.5212   12.2924 C   0  0  0  0  0  0  0  0  0  0  0  0
    7.5137   -1.4261   13.5774 C   0  0  0  0  0  0  0  0  0  0  0  0
    7.1927   -2.0326   14.6875 C   0  0  0  0  0  0  0  0  0  0  0  0
    5.9833   -2.5808   14.5161 C   0  0  0  0  0  0  0  0  0  0  0  0
    5.4616   -2.7151   13.2227 C   0  0  0  0  0  0  0  0  0  0  0  0
    3.7740   -3.2716   12.8521 N   0  0  0  0  0  0  0  0  0  0  0  0
    3.9603   -3.8241   11.5833 C   0  0  0  0  0  0  0  0  0  0  0  0
    3.7141   -2.4980   11.1747 C   0  0  0  0  0  0  0  0  0  0  0  0
    1.9297   -1.5693   10.8328 C   0  0  0  0  0  0  0  0  0  0  0  0
    0.5929   -1.7173    9.2885 C   0  0  0  0  0  0  0  0  0  0  0  0
    1.1994   -2.0902    8.2486 O   0  0  0  0  0  0  0  0  0  0  0  0
   -1.3416   -1.3185    9.1591 N   0  0  0  0  0  0  0  0  0  0  0  0
   -2.4472   -1.4795    7.8995 C   0  0  0  0  0  0  0  0  0  0  0  0
   -3.5337   -0.3927    8.2859 C   0  0  0  0  0  0  0  0  0  0  0  0
   -3.4241   -2.5271    7.0682 C   0  0  0  0  0  0  0  0  0  0  0  0
   -4.1452   -2.0175    5.7819 C   0  0  0  0  0  0  0  0  0  0  0  0
   -5.5868   -1.7953    5.9814 N   0  0  0  0  0  0  0  0  0  0  0  0
   -6.3803   -3.0297    6.0239 C   0  0  0  0  0  0  0  0  0  0  0  0
   -7.8071   -2.5181    5.9149 C   0  0  0  0  0  0  0  0  0  0  0  0
   -7.6925   -1.2229    5.1200 C   0  0  0  0  0  0  0  0  0  0  0  0
   -6.1970   -1.0119    4.9077 C   0  0  0  0  0  0  0  0  0  0  0  0
    5.4881   -2.3478   11.9508 C   0  0  0  0  0  0  0  0  0  0  0  0
    8.1182    0.0556   11.8354 H   0  0  0  0  0  0  0  0  0  0  0  0
    6.5654   -0.0371   12.1522 H   0  0  0  0  0  0  0  0  0  0  0  0
    6.9867   -0.5105   10.4901 H   0  0  0  0  0  0  0  0  0  0  0  0
    8.3062   -0.6825   13.7131 H   0  0  0  0  0  0  0  0  0  0  0  0
    7.7724   -1.8622   15.5677 H   0  0  0  0  0  0  0  0  0  0  0  0
    5.2849   -2.9842   15.2258 H   0  0  0  0  0  0  0  0  0  0  0  0
    3.3071   -3.7707   13.5949 H   0  0  0  0  0  0  0  0  0  0  0  0
    3.5733   -4.8254   11.4482 H   0  0  0  0  0  0  0  0  0  0  0  0
    1.2708   -1.4201   11.6773 H   0  0  0  0  0  0  0  0  0  0  0  0
    2.3461   -0.5764   11.0471 H   0  0  0  0  0  0  0  0  0  0  0  0
   -1.6975   -1.1292   10.0903 H   0  0  0  0  0  0  0  0  0  0  0  0
   -2.7402   -2.2327    8.6367 H   0  0  0  0  0  0  0  0  0  0  0  0
   -4.1392   -0.7102    9.1386 H   0  0  0  0  0  0  0  0  0  0  0  0
   -3.0729    0.5512    8.5662 H   0  0  0  0  0  0  0  0  0  0  0  0
   -4.2864   -0.2224    7.5225 H   0  0  0  0  0  0  0  0  0  0  0  0
   -2.9819   -3.5072    6.8924 H   0  0  0  0  0  0  0  0  0  0  0  0
   -4.2599   -2.7802    7.7155 H   0  0  0  0  0  0  0  0  0  0  0  0
   -4.0022   -2.7438    4.9741 H   0  0  0  0  0  0  0  0  0  0  0  0
   -3.6695   -1.0939    5.4448 H   0  0  0  0  0  0  0  0  0  0  0  0
   -6.1561   -3.6822    5.1709 H   0  0  0  0  0  0  0  0  0  0  0  0
   -6.2395   -3.5963    6.9455 H   0  0  0  0  0  0  0  0  0  0  0  0
   -8.4641   -3.2429    5.4241 H   0  0  0  0  0  0  0  0  0  0  0  0
   -8.2197   -2.3081    6.9091 H   0  0  0  0  0  0  0  0  0  0  0  0
   -8.1287   -0.3952    5.6908 H   0  0  0  0  0  0  0  0  0  0  0  0
   -8.2223   -1.2887    4.1641 H   0  0  0  0  0  0  0  0  0  0  0  0
   -5.9055   -1.3886    3.9189 H   0  0  0  0  0  0  0  0  0  0  0  0
   -5.9295    0.0477    4.9689 H   0  0  0  0  0  0  0  0  0  0  0  0
  1  2  1  0
  2  3  2  0
  3  4  1  0
  4  5  2  0
  5  6  1  0
  6  7  1  0
  7  8  1  0
  8  9  2  0
  9 10  1  0
 10 11  1  0
 11 12  2  0
 11 13  1  0
 13 14  1  0
 14 15  1  0
 14 16  1  0
 16 17  1  0
 17 18  1  0
 18 19  1  0
 19 20  1  0
 20 21  1  0
 21 22  1  0
  9 23  1  0
 23  2  1  0
 23  6  2  0
 22 18  1  0
  1 24  1  0
  1 25  1  0
  1 26  1  0
  3 27  1  0
  4 28  1  0
  5 29  1  0
  7 30  1  0
  8 31  1  0
 10 32  1  0
 10 33  1  0
 13 34  1  0
 14 35  1  0
 15 36  1  0
 15 37  1  0
 15 38  1  0
 16 39  1  0
 16 40  1  0
 17 41  1  0
 17 42  1  0
 19 43  1  0
 19 44  1  0
 20 45  1  0
 20 46  1  0
 21 47  1  0
 21 48  1  0
 22 49  1  0
 22 50  1  0
M  END
>  <Energy>  (62) 
755.75637263308067

>  <compound_id>  (62) 
4681

>  <target_id>  (62) 
1

>  <reference_id>  (62) 
95

>  <inspiration_ids>  (62) 
[93, 95]

>  <energy_score>  (62) 
685.1952719203414

>  <distance_score>  (62) 
7.226289063177635

>  <path>  (62) 
/opt/xchem-fragalysis-2/maxwin/BulkDock/SCRATCH/511018/C4681-P95/C4681-P95.minimised.mol

>  <scratch_subdir>  (62) 
/opt/xchem-fragalysis-2/maxwin/BulkDock/SCRATCH/511018/C4681-P95

>  <fragmenstein_runtime>  (62) 
13.001793622970581

>  <fragmenstein_outcome>  (62) 
too moved

>  <fragmenstein_mode>  (62) 
expansion

>  <fragmenstein_error>  (62) 


$$$$
C4682-P93
     RDKit          3D

 47 49  0  0  0  0  0  0  0  0999 V2000
   -2.6658   -3.0841    7.5527 C   0  0  0  0  0  0  0  0  0  0  0  0
   -1.9868   -4.9227    7.0251 C   0  0  0  0  0  0  0  0  0  0  0  0
   -3.5474   -4.7569    7.5212 C   0  0  0  0  0  0  0  0  0  0  0  0
   -5.0233   -3.8031    6.8187 C   0  0  0  0  0  0  0  0  0  0  0  0
   -6.3902   -4.2182    6.3353 N   0  0  0  0  0  0  0  0  0  0  0  0
   -7.4662   -4.4730    7.2927 C   0  0  0  0  0  0  0  0  0  0  0  0
   -8.3680   -3.2590    7.3006 C   0  0  0  0  0  0  0  0  0  0  0  0
   -8.4210   -2.9455    5.8326 C   0  0  0  0  0  0  0  0  0  0  0  0
   -6.9779   -3.1854    5.4305 C   0  0  0  0  0  0  0  0  0  0  0  0
   -0.0896   -5.3577    8.0624 N   0  0  0  0  0  0  0  0  0  0  0  0
    1.3736   -4.1641    8.6835 C   0  0  0  0  0  0  0  0  0  0  0  0
    1.2464   -3.0372    8.3113 O   0  0  0  0  0  0  0  0  0  0  0  0
    2.9826   -4.2110   10.0732 C   0  0  0  0  0  0  0  0  0  0  0  0
    3.9668   -3.4349   11.7321 C   0  0  0  0  0  0  0  0  0  0  0  0
    3.5291   -3.5518   13.1308 C   0  0  0  0  0  0  0  0  0  0  0  0
    4.7783   -3.1017   14.3675 N   0  0  0  0  0  0  0  0  0  0  0  0
    5.9807   -2.7565   13.8743 C   0  0  0  0  0  0  0  0  0  0  0  0
    7.1070   -2.4356   14.6530 C   0  0  0  0  0  0  0  0  0  0  0  0
    7.9239   -1.4204   14.4391 C   0  0  0  0  0  0  0  0  0  0  0  0
    7.7355   -0.8628   13.2235 C   0  0  0  0  0  0  0  0  0  0  0  0
    9.2433    0.3778   13.1333 Cl  0  0  0  0  0  0  0  0  0  0  0  0
    6.7605   -1.4590   12.1927 C   0  0  0  0  0  0  0  0  0  0  0  0
    5.6364   -2.6574   12.4681 C   0  0  0  0  0  0  0  0  0  0  0  0
   -3.0074   -3.0303    8.5889 H   0  0  0  0  0  0  0  0  0  0  0  0
   -3.4623   -2.5776    7.0258 H   0  0  0  0  0  0  0  0  0  0  0  0
   -1.9977   -2.2018    7.5907 H   0  0  0  0  0  0  0  0  0  0  0  0
   -2.2517   -5.4177    6.0023 H   0  0  0  0  0  0  0  0  0  0  0  0
   -3.6806   -4.9514    8.6051 H   0  0  0  0  0  0  0  0  0  0  0  0
   -3.6421   -5.6454    7.0090 H   0  0  0  0  0  0  0  0  0  0  0  0
   -5.1972   -2.9237    7.4484 H   0  0  0  0  0  0  0  0  0  0  0  0
   -4.6140   -3.4897    5.8767 H   0  0  0  0  0  0  0  0  0  0  0  0
   -8.0545   -5.3046    6.8878 H   0  0  0  0  0  0  0  0  0  0  0  0
   -7.1724   -4.8018    8.2806 H   0  0  0  0  0  0  0  0  0  0  0  0
   -7.9248   -2.4326    7.8672 H   0  0  0  0  0  0  0  0  0  0  0  0
   -9.3565   -3.4719    7.6968 H   0  0  0  0  0  0  0  0  0  0  0  0
   -8.7541   -1.9235    5.6313 H   0  0  0  0  0  0  0  0  0  0  0  0
   -9.0903   -3.6398    5.3105 H   0  0  0  0  0  0  0  0  0  0  0  0
   -6.9201   -3.5079    4.3868 H   0  0  0  0  0  0  0  0  0  0  0  0
   -6.4715   -2.2218    5.5530 H   0  0  0  0  0  0  0  0  0  0  0  0
    0.0421   -6.2634    8.4865 H   0  0  0  0  0  0  0  0  0  0  0  0
    3.6006   -3.7582    9.3344 H   0  0  0  0  0  0  0  0  0  0  0  0
    2.8442   -5.0315   10.7419 H   0  0  0  0  0  0  0  0  0  0  0  0
    2.7080   -4.0308   13.6495 H   0  0  0  0  0  0  0  0  0  0  0  0
    4.7274   -3.5285   15.2865 H   0  0  0  0  0  0  0  0  0  0  0  0
    7.3706   -2.9955   15.5059 H   0  0  0  0  0  0  0  0  0  0  0  0
    8.7313   -1.1712   15.1095 H   0  0  0  0  0  0  0  0  0  0  0  0
    6.7752   -0.9796   11.2212 H   0  0  0  0  0  0  0  0  0  0  0  0
  1  2  1  0
  2  3  1  0
  3  4  1  0
  4  5  1  0
  5  6  1  0
  6  7  1  0
  7  8  1  0
  8  9  1  0
  2 10  1  0
 10 11  1  0
 11 12  2  0
 11 13  1  0
 13 14  1  0
 14 15  2  0
 15 16  1  0
 16 17  1  0
 17 18  2  0
 18 19  1  0
 19 20  2  0
 20 21  1  0
 20 22  1  0
 22 23  2  0
  9  5  1  0
 23 14  1  0
 23 17  1  0
  1 24  1  0
  1 25  1  0
  1 26  1  0
  2 27  1  0
  3 28  1  0
  3 29  1  0
  4 30  1  0
  4 31  1  0
  6 32  1  0
  6 33  1  0
  7 34  1  0
  7 35  1  0
  8 36  1  0
  8 37  1  0
  9 38  1  0
  9 39  1  0
 10 40  1  0
 13 41  1  0
 13 42  1  0
 15 43  1  0
 16 44  1  0
 18 45  1  0
 19 46  1  0
 22 47  1  0
M  END
>  <Energy>  (63) 
1115.6404858621629

>  <compound_id>  (63) 
4682

>  <target_id>  (63) 
1

>  <reference_id>  (63) 
93

>  <inspiration_ids>  (63) 
[93, 95]

>  <energy_score>  (63) 
1066.7020514473038

>  <distance_score>  (63) 
7.2498812907205

>  <path>  (63) 
/opt/xchem-fragalysis-2/maxwin/BulkDock/SCRATCH/511018/C4682-P93/C4682-P93.minimised.mol

>  <scratch_subdir>  (63) 
/opt/xchem-fragalysis-2/maxwin/BulkDock/SCRATCH/511018/C4682-P93

>  <fragmenstein_runtime>  (63) 
9.68367052078247

>  <fragmenstein_outcome>  (63) 
too moved

>  <fragmenstein_mode>  (63) 
expansion

>  <fragmenstein_error>  (63) 


$$$$
C4682-P95
     RDKit          3D

 47 49  0  0  0  0  0  0  0  0999 V2000
   -1.9046   -1.5624    7.3760 C   0  0  0  0  0  0  0  0  0  0  0  0
   -1.1796   -1.2886    9.0683 C   0  0  0  0  0  0  0  0  0  0  0  0
   -2.7551   -0.1759    8.8910 C   0  0  0  0  0  0  0  0  0  0  0  0
   -4.2261   -0.8216    8.5611 C   0  0  0  0  0  0  0  0  0  0  0  0
   -5.1529   -0.3540    7.4958 N   0  0  0  0  0  0  0  0  0  0  0  0
   -5.0923   -1.1975    6.2841 C   0  0  0  0  0  0  0  0  0  0  0  0
   -6.4026   -0.9223    5.5548 C   0  0  0  0  0  0  0  0  0  0  0  0
   -7.3532   -0.4171    6.6247 C   0  0  0  0  0  0  0  0  0  0  0  0
   -6.5616   -0.5157    7.9155 C   0  0  0  0  0  0  0  0  0  0  0  0
    0.5598   -1.4034   10.3745 N   0  0  0  0  0  0  0  0  0  0  0  0
    2.4668   -2.1056   10.1541 C   0  0  0  0  0  0  0  0  0  0  0  0
    2.8515   -2.6461    9.0364 O   0  0  0  0  0  0  0  0  0  0  0  0
    3.9338   -2.3101   11.4840 C   0  0  0  0  0  0  0  0  0  0  0  0
    5.7998   -2.0607   12.3106 C   0  0  0  0  0  0  0  0  0  0  0  0
    5.9085   -2.4302   13.8482 C   0  0  0  0  0  0  0  0  0  0  0  0
    7.1234   -2.4560   14.4065 N   0  0  0  0  0  0  0  0  0  0  0  0
    7.6250   -1.2815   14.1681 C   0  0  0  0  0  0  0  0  0  0  0  0
    8.6270   -0.6568   14.9660 C   0  0  0  0  0  0  0  0  0  0  0  0
    9.3459    0.3714   14.4421 C   0  0  0  0  0  0  0  0  0  0  0  0
    9.0434    0.6456   13.1379 C   0  0  0  0  0  0  0  0  0  0  0  0
   10.1755    1.7222   12.3475 Cl  0  0  0  0  0  0  0  0  0  0  0  0
    7.8633   -0.0322   12.4149 C   0  0  0  0  0  0  0  0  0  0  0  0
    7.0293   -1.0312   12.8888 C   0  0  0  0  0  0  0  0  0  0  0  0
   -2.6162   -0.8437    7.0154 H   0  0  0  0  0  0  0  0  0  0  0  0
   -2.5317   -2.4688    7.3910 H   0  0  0  0  0  0  0  0  0  0  0  0
   -1.1250   -1.5564    6.6159 H   0  0  0  0  0  0  0  0  0  0  0  0
   -1.9933   -1.9886    9.3010 H   0  0  0  0  0  0  0  0  0  0  0  0
   -3.0499    0.2358    9.7978 H   0  0  0  0  0  0  0  0  0  0  0  0
   -2.5716    0.6744    8.2579 H   0  0  0  0  0  0  0  0  0  0  0  0
   -4.7705   -0.5900    9.4741 H   0  0  0  0  0  0  0  0  0  0  0  0
   -4.1340   -1.8948    8.5102 H   0  0  0  0  0  0  0  0  0  0  0  0
   -5.0440   -2.2655    6.5347 H   0  0  0  0  0  0  0  0  0  0  0  0
   -4.2451   -0.9617    5.6355 H   0  0  0  0  0  0  0  0  0  0  0  0
   -6.2673   -0.1558    4.7831 H   0  0  0  0  0  0  0  0  0  0  0  0
   -6.7833   -1.8264    5.0684 H   0  0  0  0  0  0  0  0  0  0  0  0
   -7.6268    0.6241    6.4173 H   0  0  0  0  0  0  0  0  0  0  0  0
   -8.2750   -1.0056    6.6665 H   0  0  0  0  0  0  0  0  0  0  0  0
   -6.8719    0.2549    8.6267 H   0  0  0  0  0  0  0  0  0  0  0  0
   -6.7367   -1.4969    8.3690 H   0  0  0  0  0  0  0  0  0  0  0  0
    0.4274   -1.1029   11.3400 H   0  0  0  0  0  0  0  0  0  0  0  0
    3.5379   -3.0561   12.1939 H   0  0  0  0  0  0  0  0  0  0  0  0
    3.8360   -1.2363   11.2565 H   0  0  0  0  0  0  0  0  0  0  0  0
    5.1126   -2.7150   14.5207 H   0  0  0  0  0  0  0  0  0  0  0  0
    7.4468   -2.9833   15.1858 H   0  0  0  0  0  0  0  0  0  0  0  0
    8.9101   -1.0671   15.9229 H   0  0  0  0  0  0  0  0  0  0  0  0
   10.1746    0.8250   14.9675 H   0  0  0  0  0  0  0  0  0  0  0  0
    7.6478   -0.0354   11.3726 H   0  0  0  0  0  0  0  0  0  0  0  0
  1  2  1  0
  2  3  1  0
  3  4  1  0
  4  5  1  0
  5  6  1  0
  6  7  1  0
  7  8  1  0
  8  9  1  0
  2 10  1  0
 10 11  1  0
 11 12  2  0
 11 13  1  0
 13 14  1  0
 14 15  2  0
 15 16  1  0
 16 17  1  0
 17 18  2  0
 18 19  1  0
 19 20  2  0
 20 21  1  0
 20 22  1  0
 22 23  2  0
  9  5  1  0
 23 14  1  0
 23 17  1  0
  1 24  1  0
  1 25  1  0
  1 26  1  0
  2 27  1  0
  3 28  1  0
  3 29  1  0
  4 30  1  0
  4 31  1  0
  6 32  1  0
  6 33  1  0
  7 34  1  0
  7 35  1  0
  8 36  1  0
  8 37  1  0
  9 38  1  0
  9 39  1  0
 10 40  1  0
 13 41  1  0
 13 42  1  0
 15 43  1  0
 16 44  1  0
 18 45  1  0
 19 46  1  0
 22 47  1  0
M  END
>  <Energy>  (64) 
939.18162054223944

>  <compound_id>  (64) 
4682

>  <target_id>  (64) 
1

>  <reference_id>  (64) 
95

>  <inspiration_ids>  (64) 
[93, 95]

>  <energy_score>  (64) 
890.2431861273856

>  <distance_score>  (64) 
6.473911792012151

>  <path>  (64) 
/opt/xchem-fragalysis-2/maxwin/BulkDock/SCRATCH/511018/C4682-P95/C4682-P95.minimised.mol

>  <scratch_subdir>  (64) 
/opt/xchem-fragalysis-2/maxwin/BulkDock/SCRATCH/511018/C4682-P95

>  <fragmenstein_runtime>  (64) 
16.155656576156616

>  <fragmenstein_outcome>  (64) 
too moved

>  <fragmenstein_mode>  (64) 
expansion

>  <fragmenstein_error>  (64) 


$$$$
C4683-P93
     RDKit          3D

 50 52  0  0  0  0  0  0  0  0999 V2000
    1.7031   -2.1311    7.6626 C   0  0  0  0  0  0  0  0  0  0  0  0
    2.3197   -3.6107    8.6521 C   0  0  0  0  0  0  0  0  0  0  0  0
    2.7436   -3.5082   10.5466 C   0  0  0  0  0  0  0  0  0  0  0  0
    1.3068   -1.8586   10.2954 C   0  0  0  0  0  0  0  0  0  0  0  0
   -0.6332   -1.3947   10.0497 N   0  0  0  0  0  0  0  0  0  0  0  0
   -1.5798    0.0544   10.2139 C   0  0  0  0  0  0  0  0  0  0  0  0
   -2.9672    0.2959    9.5504 C   0  0  0  0  0  0  0  0  0  0  0  0
   -3.0908   -0.7682    8.5448 C   0  0  0  0  0  0  0  0  0  0  0  0
   -1.8149   -1.6295    8.6958 C   0  0  0  0  0  0  0  0  0  0  0  0
    4.2797   -4.4692   11.5400 N   0  0  0  0  0  0  0  0  0  0  0  0
    4.5956   -6.3589   11.9859 C   0  0  0  0  0  0  0  0  0  0  0  0
    3.7287   -7.1911   11.7327 O   0  0  0  0  0  0  0  0  0  0  0  0
    6.2890   -7.3470   13.0470 C   0  0  0  0  0  0  0  0  0  0  0  0
    8.2036   -7.1483   14.0712 C   0  0  0  0  0  0  0  0  0  0  0  0
    9.3180   -7.6900   14.9054 C   0  0  0  0  0  0  0  0  0  0  0  0
   10.7339   -6.5538   15.1946 N   0  0  0  0  0  0  0  0  0  0  0  0
   10.4571   -4.9668   14.6403 C   0  0  0  0  0  0  0  0  0  0  0  0
   11.2314   -3.7817   14.9992 C   0  0  0  0  0  0  0  0  0  0  0  0
   10.7256   -2.4917   15.0772 C   0  0  0  0  0  0  0  0  0  0  0  0
   11.6502   -1.3269   15.2694 C   0  0  0  0  0  0  0  0  0  0  0  0
    9.3584   -2.3354   14.9713 C   0  0  0  0  0  0  0  0  0  0  0  0
    8.4828   -3.4762   14.7635 C   0  0  0  0  0  0  0  0  0  0  0  0
    8.7969   -5.2187   14.4428 C   0  0  0  0  0  0  0  0  0  0  0  0
    2.6344   -1.9839    7.1495 H   0  0  0  0  0  0  0  0  0  0  0  0
    1.8138   -1.1206    7.9698 H   0  0  0  0  0  0  0  0  0  0  0  0
    1.0210   -2.0127    6.8061 H   0  0  0  0  0  0  0  0  0  0  0  0
    3.2544   -3.7765    8.1445 H   0  0  0  0  0  0  0  0  0  0  0  0
    1.6048   -4.4275    8.4990 H   0  0  0  0  0  0  0  0  0  0  0  0
    2.2510   -4.3880   11.0306 H   0  0  0  0  0  0  0  0  0  0  0  0
    1.4975   -1.1340   11.1234 H   0  0  0  0  0  0  0  0  0  0  0  0
    1.5425   -1.0608    9.6549 H   0  0  0  0  0  0  0  0  0  0  0  0
   -1.2276    0.9333    9.7049 H   0  0  0  0  0  0  0  0  0  0  0  0
   -1.7526    0.2300   11.3046 H   0  0  0  0  0  0  0  0  0  0  0  0
   -3.0762    1.3432    9.2872 H   0  0  0  0  0  0  0  0  0  0  0  0
   -3.7772    0.1910   10.2679 H   0  0  0  0  0  0  0  0  0  0  0  0
   -3.2262   -0.4910    7.5080 H   0  0  0  0  0  0  0  0  0  0  0  0
   -4.0027   -1.3470    8.7405 H   0  0  0  0  0  0  0  0  0  0  0  0
   -2.3803   -2.5412    8.7859 H   0  0  0  0  0  0  0  0  0  0  0  0
   -1.4357   -1.5369    7.6858 H   0  0  0  0  0  0  0  0  0  0  0  0
    5.1128   -3.9460   11.7363 H   0  0  0  0  0  0  0  0  0  0  0  0
    5.7753   -7.9054   13.8611 H   0  0  0  0  0  0  0  0  0  0  0  0
    6.6253   -8.1389   12.3415 H   0  0  0  0  0  0  0  0  0  0  0  0
    9.5561   -8.7047   15.2374 H   0  0  0  0  0  0  0  0  0  0  0  0
   11.4556   -6.6578   15.8967 H   0  0  0  0  0  0  0  0  0  0  0  0
   12.2776   -3.9179   15.2741 H   0  0  0  0  0  0  0  0  0  0  0  0
   12.2315   -1.1560   14.3578 H   0  0  0  0  0  0  0  0  0  0  0  0
   11.0939   -0.4119   15.4983 H   0  0  0  0  0  0  0  0  0  0  0  0
   12.3340   -1.5142   16.1038 H   0  0  0  0  0  0  0  0  0  0  0  0
    8.9117   -1.3455   15.0218 H   0  0  0  0  0  0  0  0  0  0  0  0
    7.4488   -3.0819   14.6800 H   0  0  0  0  0  0  0  0  0  0  0  0
  1  2  1  0
  2  3  1  0
  3  4  1  0
  4  5  1  0
  5  6  1  0
  6  7  1  0
  7  8  1  0
  8  9  1  0
  3 10  1  0
 10 11  1  0
 11 12  2  0
 11 13  1  0
 13 14  1  0
 14 15  2  0
 15 16  1  0
 16 17  1  0
 17 18  2  0
 18 19  1  0
 19 20  1  0
 19 21  2  0
 21 22  1  0
 22 23  2  0
  9  5  1  0
 23 14  1  0
 23 17  1  0
  1 24  1  0
  1 25  1  0
  1 26  1  0
  2 27  1  0
  2 28  1  0
  3 29  1  0
  4 30  1  0
  4 31  1  0
  6 32  1  0
  6 33  1  0
  7 34  1  0
  7 35  1  0
  8 36  1  0
  8 37  1  0
  9 38  1  0
  9 39  1  0
 10 40  1  0
 13 41  1  0
 13 42  1  0
 15 43  1  0
 16 44  1  0
 18 45  1  0
 20 46  1  0
 20 47  1  0
 20 48  1  0
 21 49  1  0
 22 50  1  0
M  END
>  <Energy>  (65) 
1463.9233700162986

>  <compound_id>  (65) 
4683

>  <target_id>  (65) 
1

>  <reference_id>  (65) 
93

>  <inspiration_ids>  (65) 
[93, 95]

>  <energy_score>  (65) 
1375.0550000338696

>  <distance_score>  (65) 
8.078457946599409

>  <path>  (65) 
/opt/xchem-fragalysis-2/maxwin/BulkDock/SCRATCH/511018/C4683-P93/C4683-P93.minimised.mol

>  <scratch_subdir>  (65) 
/opt/xchem-fragalysis-2/maxwin/BulkDock/SCRATCH/511018/C4683-P93

>  <fragmenstein_runtime>  (65) 
13.048190593719482

>  <fragmenstein_outcome>  (65) 
too moved

>  <fragmenstein_mode>  (65) 
expansion

>  <fragmenstein_error>  (65) 


$$$$
C4683-P95
     RDKit          3D

 50 52  0  0  0  0  0  0  0  0999 V2000
   -0.8874   -7.3262    4.8270 C   0  0  0  0  0  0  0  0  0  0  0  0
   -0.4832   -7.4345    6.3076 C   0  0  0  0  0  0  0  0  0  0  0  0
   -0.4390   -5.8762    7.1309 C   0  0  0  0  0  0  0  0  0  0  0  0
   -2.2742   -5.0457    6.7921 C   0  0  0  0  0  0  0  0  0  0  0  0
   -3.2134   -3.6651    6.7027 N   0  0  0  0  0  0  0  0  0  0  0  0
   -4.0061   -3.1983    5.5450 C   0  0  0  0  0  0  0  0  0  0  0  0
   -5.1981   -2.5475    6.2185 C   0  0  0  0  0  0  0  0  0  0  0  0
   -4.5180   -1.7568    7.3148 C   0  0  0  0  0  0  0  0  0  0  0  0
   -3.1757   -2.4761    7.5498 C   0  0  0  0  0  0  0  0  0  0  0  0
    0.9301   -5.3706    8.4657 N   0  0  0  0  0  0  0  0  0  0  0  0
    2.5059   -4.2105    8.3856 C   0  0  0  0  0  0  0  0  0  0  0  0
    2.9844   -3.6087    7.4776 O   0  0  0  0  0  0  0  0  0  0  0  0
    3.7176   -4.0293   10.0504 C   0  0  0  0  0  0  0  0  0  0  0  0
    4.3869   -3.1470   11.6842 C   0  0  0  0  0  0  0  0  0  0  0  0
    3.6849   -3.2625   12.9811 C   0  0  0  0  0  0  0  0  0  0  0  0
    4.8375   -2.7482   14.2993 N   0  0  0  0  0  0  0  0  0  0  0  0
    6.0697   -2.3096   13.7771 C   0  0  0  0  0  0  0  0  0  0  0  0
    7.2615   -2.0383   14.4835 C   0  0  0  0  0  0  0  0  0  0  0  0
    8.0287   -1.0141   14.1034 C   0  0  0  0  0  0  0  0  0  0  0  0
    9.1899   -0.4981   14.8960 C   0  0  0  0  0  0  0  0  0  0  0  0
    7.6657   -0.5295   12.8486 C   0  0  0  0  0  0  0  0  0  0  0  0
    6.8059   -1.1628   11.9035 C   0  0  0  0  0  0  0  0  0  0  0  0
    5.8418   -2.1210   12.2955 C   0  0  0  0  0  0  0  0  0  0  0  0
   -0.8640   -6.3009    4.4577 H   0  0  0  0  0  0  0  0  0  0  0  0
   -0.1757   -7.8998    4.2217 H   0  0  0  0  0  0  0  0  0  0  0  0
   -1.8654   -7.7585    4.6248 H   0  0  0  0  0  0  0  0  0  0  0  0
    0.4864   -7.9486    6.3879 H   0  0  0  0  0  0  0  0  0  0  0  0
   -1.0360   -8.1898    6.8560 H   0  0  0  0  0  0  0  0  0  0  0  0
   -0.6842   -6.6235    7.9186 H   0  0  0  0  0  0  0  0  0  0  0  0
   -2.9436   -5.3305    7.6054 H   0  0  0  0  0  0  0  0  0  0  0  0
   -2.4862   -5.5375    5.8534 H   0  0  0  0  0  0  0  0  0  0  0  0
   -3.4680   -2.4041    5.0078 H   0  0  0  0  0  0  0  0  0  0  0  0
   -4.3209   -3.8999    4.7752 H   0  0  0  0  0  0  0  0  0  0  0  0
   -5.8752   -3.2997    6.6391 H   0  0  0  0  0  0  0  0  0  0  0  0
   -5.7672   -1.9058    5.5397 H   0  0  0  0  0  0  0  0  0  0  0  0
   -5.1438   -1.6734    8.2042 H   0  0  0  0  0  0  0  0  0  0  0  0
   -4.3336   -0.7388    6.9694 H   0  0  0  0  0  0  0  0  0  0  0  0
   -2.3883   -1.7832    7.2358 H   0  0  0  0  0  0  0  0  0  0  0  0
   -3.0385   -2.6794    8.5957 H   0  0  0  0  0  0  0  0  0  0  0  0
    0.8209   -5.8140    9.3821 H   0  0  0  0  0  0  0  0  0  0  0  0
    3.4392   -4.8515   10.7290 H   0  0  0  0  0  0  0  0  0  0  0  0
    3.3648   -2.9703    9.9717 H   0  0  0  0  0  0  0  0  0  0  0  0
    2.8612   -3.8295   13.4009 H   0  0  0  0  0  0  0  0  0  0  0  0
    4.7230   -3.1410   15.2239 H   0  0  0  0  0  0  0  0  0  0  0  0
    7.5707   -2.5534   15.3583 H   0  0  0  0  0  0  0  0  0  0  0  0
    9.9823   -1.2512   14.9493 H   0  0  0  0  0  0  0  0  0  0  0  0
    9.6061    0.4114   14.4508 H   0  0  0  0  0  0  0  0  0  0  0  0
    8.8687   -0.2479   15.9121 H   0  0  0  0  0  0  0  0  0  0  0  0
    8.2777    0.2989   12.5085 H   0  0  0  0  0  0  0  0  0  0  0  0
    6.9071   -0.7638   10.9100 H   0  0  0  0  0  0  0  0  0  0  0  0
  1  2  1  0
  2  3  1  0
  3  4  1  0
  4  5  1  0
  5  6  1  0
  6  7  1  0
  7  8  1  0
  8  9  1  0
  3 10  1  0
 10 11  1  0
 11 12  2  0
 11 13  1  0
 13 14  1  0
 14 15  2  0
 15 16  1  0
 16 17  1  0
 17 18  2  0
 18 19  1  0
 19 20  1  0
 19 21  2  0
 21 22  1  0
 22 23  2  0
  9  5  1  0
 23 14  1  0
 23 17  1  0
  1 24  1  0
  1 25  1  0
  1 26  1  0
  2 27  1  0
  2 28  1  0
  3 29  1  0
  4 30  1  0
  4 31  1  0
  6 32  1  0
  6 33  1  0
  7 34  1  0
  7 35  1  0
  8 36  1  0
  8 37  1  0
  9 38  1  0
  9 39  1  0
 10 40  1  0
 13 41  1  0
 13 42  1  0
 15 43  1  0
 16 44  1  0
 18 45  1  0
 20 46  1  0
 20 47  1  0
 20 48  1  0
 21 49  1  0
 22 50  1  0
M  END
>  <Energy>  (66) 
758.56552570012241

>  <compound_id>  (66) 
4683

>  <target_id>  (66) 
1

>  <reference_id>  (66) 
95

>  <inspiration_ids>  (66) 
[93, 95]

>  <energy_score>  (66) 
669.697155717678

>  <distance_score>  (66) 
7.872143640339093

>  <path>  (66) 
/opt/xchem-fragalysis-2/maxwin/BulkDock/SCRATCH/511018/C4683-P95/C4683-P95.minimised.mol

>  <scratch_subdir>  (66) 
/opt/xchem-fragalysis-2/maxwin/BulkDock/SCRATCH/511018/C4683-P95

>  <fragmenstein_runtime>  (66) 
13.505549430847168

>  <fragmenstein_outcome>  (66) 
too moved

>  <fragmenstein_mode>  (66) 
expansion

>  <fragmenstein_error>  (66) 


$$$$
C4685-P93
     RDKit          3D

 47 49  0  0  0  0  0  0  0  0999 V2000
   -1.9816   -2.0819    7.5520 C   0  0  0  0  0  0  0  0  0  0  0  0
   -0.1832   -1.4037    6.8466 C   0  0  0  0  0  0  0  0  0  0  0  0
   -1.8193   -0.5139    7.8646 C   0  0  0  0  0  0  0  0  0  0  0  0
   -3.6954   -0.4866    8.1963 C   0  0  0  0  0  0  0  0  0  0  0  0
   -4.7763   -0.5309    7.1687 N   0  0  0  0  0  0  0  0  0  0  0  0
   -5.7005    0.6125    7.1419 C   0  0  0  0  0  0  0  0  0  0  0  0
   -6.8377    0.1301    6.2455 C   0  0  0  0  0  0  0  0  0  0  0  0
   -6.8993   -1.3696    6.4736 C   0  0  0  0  0  0  0  0  0  0  0  0
   -5.7018   -1.6617    7.3648 C   0  0  0  0  0  0  0  0  0  0  0  0
    1.5736   -0.8891    7.9405 N   0  0  0  0  0  0  0  0  0  0  0  0
    1.7502   -0.6495    9.8087 C   0  0  0  0  0  0  0  0  0  0  0  0
    0.8867   -0.8904   10.5977 O   0  0  0  0  0  0  0  0  0  0  0  0
    3.4008    0.2820   10.8041 C   0  0  0  0  0  0  0  0  0  0  0  0
    5.1014   -0.5752   11.4144 C   0  0  0  0  0  0  0  0  0  0  0  0
    6.3502   -0.5367   10.6909 C   0  0  0  0  0  0  0  0  0  0  0  0
    7.3340   -1.1451   11.3148 N   0  0  0  0  0  0  0  0  0  0  0  0
    7.4606   -0.6821   12.5576 C   0  0  0  0  0  0  0  0  0  0  0  0
    8.4895   -0.2687   13.5279 C   0  0  0  0  0  0  0  0  0  0  0  0
    8.5265   -1.0028   14.6896 C   0  0  0  0  0  0  0  0  0  0  0  0
    7.5847   -1.9898   14.7191 C   0  0  0  0  0  0  0  0  0  0  0  0
    7.8122   -3.0250   15.4757 F   0  0  0  0  0  0  0  0  0  0  0  0
    6.4239   -2.0587   13.9190 C   0  0  0  0  0  0  0  0  0  0  0  0
    6.2232   -1.2241   12.7339 C   0  0  0  0  0  0  0  0  0  0  0  0
   -2.1783   -2.2351    8.6186 H   0  0  0  0  0  0  0  0  0  0  0  0
   -2.3342   -3.1024    7.2812 H   0  0  0  0  0  0  0  0  0  0  0  0
   -2.9737   -1.8179    7.1396 H   0  0  0  0  0  0  0  0  0  0  0  0
   -0.0954   -1.1058    5.8243 H   0  0  0  0  0  0  0  0  0  0  0  0
   -1.6491   -0.6339    8.9646 H   0  0  0  0  0  0  0  0  0  0  0  0
   -1.7238    0.5273    7.9037 H   0  0  0  0  0  0  0  0  0  0  0  0
   -3.8310    0.3813    8.8503 H   0  0  0  0  0  0  0  0  0  0  0  0
   -3.8936   -1.3006    8.8970 H   0  0  0  0  0  0  0  0  0  0  0  0
   -6.1078    0.8264    8.1329 H   0  0  0  0  0  0  0  0  0  0  0  0
   -5.2786    1.5348    6.7402 H   0  0  0  0  0  0  0  0  0  0  0  0
   -7.7845    0.6216    6.4903 H   0  0  0  0  0  0  0  0  0  0  0  0
   -6.6122    0.3386    5.1933 H   0  0  0  0  0  0  0  0  0  0  0  0
   -7.8342   -1.6647    6.9617 H   0  0  0  0  0  0  0  0  0  0  0  0
   -6.8376   -1.9035    5.5204 H   0  0  0  0  0  0  0  0  0  0  0  0
   -5.2460   -2.6261    7.1235 H   0  0  0  0  0  0  0  0  0  0  0  0
   -6.0574   -1.6650    8.3983 H   0  0  0  0  0  0  0  0  0  0  0  0
    2.4156   -0.5336    7.4683 H   0  0  0  0  0  0  0  0  0  0  0  0
    3.0421    0.8315   11.6824 H   0  0  0  0  0  0  0  0  0  0  0  0
    3.7728    1.0783   10.1288 H   0  0  0  0  0  0  0  0  0  0  0  0
    6.5825    0.0617    9.8453 H   0  0  0  0  0  0  0  0  0  0  0  0
    8.0235   -1.3629   10.6683 H   0  0  0  0  0  0  0  0  0  0  0  0
    9.3837    0.2824   13.2433 H   0  0  0  0  0  0  0  0  0  0  0  0
    9.3891   -0.9946   15.3391 H   0  0  0  0  0  0  0  0  0  0  0  0
    5.7161   -2.7958   14.2691 H   0  0  0  0  0  0  0  0  0  0  0  0
  1  2  1  0
  2  3  1  0
  3  4  1  0
  4  5  1  0
  5  6  1  0
  6  7  1  0
  7  8  1  0
  8  9  1  0
  2 10  1  0
 10 11  1  0
 11 12  2  0
 11 13  1  0
 13 14  1  0
 14 15  2  0
 15 16  1  0
 16 17  1  0
 17 18  2  0
 18 19  1  0
 19 20  2  0
 20 21  1  0
 20 22  1  0
 22 23  2  0
  9  5  1  0
 23 14  1  0
 23 17  1  0
  1 24  1  0
  1 25  1  0
  1 26  1  0
  2 27  1  0
  3 28  1  0
  3 29  1  0
  4 30  1  0
  4 31  1  0
  6 32  1  0
  6 33  1  0
  7 34  1  0
  7 35  1  0
  8 36  1  0
  8 37  1  0
  9 38  1  0
  9 39  1  0
 10 40  1  0
 13 41  1  0
 13 42  1  0
 15 43  1  0
 16 44  1  0
 18 45  1  0
 19 46  1  0
 22 47  1  0
M  END
>  <Energy>  (67) 
979.56665606906176

>  <compound_id>  (67) 
4685

>  <target_id>  (67) 
1

>  <reference_id>  (67) 
93

>  <inspiration_ids>  (67) 
[93, 95]

>  <energy_score>  (67) 
928.1122976038607

>  <distance_score>  (67) 
7.039135032234065

>  <path>  (67) 
/opt/xchem-fragalysis-2/maxwin/BulkDock/SCRATCH/511018/C4685-P93/C4685-P93.minimised.mol

>  <scratch_subdir>  (67) 
/opt/xchem-fragalysis-2/maxwin/BulkDock/SCRATCH/511018/C4685-P93

>  <fragmenstein_runtime>  (67) 
8.79404592514038

>  <fragmenstein_outcome>  (67) 
too moved

>  <fragmenstein_mode>  (67) 
expansion

>  <fragmenstein_error>  (67) 


$$$$
C4685-P95
     RDKit          3D

 47 49  0  0  0  0  0  0  0  0999 V2000
   -0.3128   -1.3170    4.6609 C   0  0  0  0  0  0  0  0  0  0  0  0
    0.1381   -1.9848    6.4572 C   0  0  0  0  0  0  0  0  0  0  0  0
   -1.8030   -1.5850    7.0558 C   0  0  0  0  0  0  0  0  0  0  0  0
   -3.3146   -2.0007    6.4266 C   0  0  0  0  0  0  0  0  0  0  0  0
   -4.5117   -1.9294    7.2781 N   0  0  0  0  0  0  0  0  0  0  0  0
   -4.8367   -0.6759    7.9343 C   0  0  0  0  0  0  0  0  0  0  0  0
   -6.1012   -0.1647    7.2670 C   0  0  0  0  0  0  0  0  0  0  0  0
   -6.8413   -1.4493    6.9607 C   0  0  0  0  0  0  0  0  0  0  0  0
   -5.7157   -2.3765    6.5378 C   0  0  0  0  0  0  0  0  0  0  0  0
    1.2702   -2.0755    8.1639 N   0  0  0  0  0  0  0  0  0  0  0  0
    2.8779   -3.0350    8.6383 C   0  0  0  0  0  0  0  0  0  0  0  0
    3.4091   -3.8458    7.9089 O   0  0  0  0  0  0  0  0  0  0  0  0
    3.7019   -2.7696   10.6144 C   0  0  0  0  0  0  0  0  0  0  0  0
    5.3015   -2.5869   11.9657 C   0  0  0  0  0  0  0  0  0  0  0  0
    5.6154   -2.5935   13.6967 C   0  0  0  0  0  0  0  0  0  0  0  0
    6.8107   -2.6012   14.2505 N   0  0  0  0  0  0  0  0  0  0  0  0
    7.3532   -1.5381   13.7921 C   0  0  0  0  0  0  0  0  0  0  0  0
    8.3546   -0.8696   14.5942 C   0  0  0  0  0  0  0  0  0  0  0  0
    8.9642    0.2219   14.1065 C   0  0  0  0  0  0  0  0  0  0  0  0
    8.5779    0.4247   12.8106 C   0  0  0  0  0  0  0  0  0  0  0  0
    9.3593    1.3240   12.1741 F   0  0  0  0  0  0  0  0  0  0  0  0
    7.4460   -0.4080   11.9691 C   0  0  0  0  0  0  0  0  0  0  0  0
    6.6730   -1.4199   12.4788 C   0  0  0  0  0  0  0  0  0  0  0  0
    0.1901   -1.8408    3.8427 H   0  0  0  0  0  0  0  0  0  0  0  0
   -1.3729   -1.4524    4.3838 H   0  0  0  0  0  0  0  0  0  0  0  0
   -0.0594   -0.4032    4.1703 H   0  0  0  0  0  0  0  0  0  0  0  0
    0.8222   -2.2150    5.6682 H   0  0  0  0  0  0  0  0  0  0  0  0
   -1.9973   -1.9257    8.0952 H   0  0  0  0  0  0  0  0  0  0  0  0
   -1.9694   -0.5494    7.3476 H   0  0  0  0  0  0  0  0  0  0  0  0
   -3.4731   -1.4247    5.5070 H   0  0  0  0  0  0  0  0  0  0  0  0
   -3.3256   -3.0735    6.1968 H   0  0  0  0  0  0  0  0  0  0  0  0
   -5.0832   -0.9008    8.9706 H   0  0  0  0  0  0  0  0  0  0  0  0
   -4.0252    0.0387    8.0175 H   0  0  0  0  0  0  0  0  0  0  0  0
   -6.6797    0.5007    7.9138 H   0  0  0  0  0  0  0  0  0  0  0  0
   -5.8672    0.3653    6.3370 H   0  0  0  0  0  0  0  0  0  0  0  0
   -7.3364   -1.8263    7.8628 H   0  0  0  0  0  0  0  0  0  0  0  0
   -7.5962   -1.3197    6.1800 H   0  0  0  0  0  0  0  0  0  0  0  0
   -5.5788   -2.2856    5.4525 H   0  0  0  0  0  0  0  0  0  0  0  0
   -5.9518   -3.4211    6.7585 H   0  0  0  0  0  0  0  0  0  0  0  0
    1.0553   -1.3906    8.8896 H   0  0  0  0  0  0  0  0  0  0  0  0
    2.9763   -2.1059   11.0303 H   0  0  0  0  0  0  0  0  0  0  0  0
    3.8433   -3.8574   10.8515 H   0  0  0  0  0  0  0  0  0  0  0  0
    4.8580   -2.7510   14.4534 H   0  0  0  0  0  0  0  0  0  0  0  0
    7.1016   -2.9830   15.1173 H   0  0  0  0  0  0  0  0  0  0  0  0
    8.6359   -1.2583   15.5640 H   0  0  0  0  0  0  0  0  0  0  0  0
    9.7548    0.7697   14.5902 H   0  0  0  0  0  0  0  0  0  0  0  0
    7.2907   -0.3093   10.9129 H   0  0  0  0  0  0  0  0  0  0  0  0
  1  2  1  0
  2  3  1  0
  3  4  1  0
  4  5  1  0
  5  6  1  0
  6  7  1  0
  7  8  1  0
  8  9  1  0
  2 10  1  0
 10 11  1  0
 11 12  2  0
 11 13  1  0
 13 14  1  0
 14 15  2  0
 15 16  1  0
 16 17  1  0
 17 18  2  0
 18 19  1  0
 19 20  2  0
 20 21  1  0
 20 22  1  0
 22 23  2  0
  9  5  1  0
 23 14  1  0
 23 17  1  0
  1 24  1  0
  1 25  1  0
  1 26  1  0
  2 27  1  0
  3 28  1  0
  3 29  1  0
  4 30  1  0
  4 31  1  0
  6 32  1  0
  6 33  1  0
  7 34  1  0
  7 35  1  0
  8 36  1  0
  8 37  1  0
  9 38  1  0
  9 39  1  0
 10 40  1  0
 13 41  1  0
 13 42  1  0
 15 43  1  0
 16 44  1  0
 18 45  1  0
 19 46  1  0
 22 47  1  0
M  END
>  <Energy>  (68) 
953.1658816765032

>  <compound_id>  (68) 
4685

>  <target_id>  (68) 
1

>  <reference_id>  (68) 
95

>  <inspiration_ids>  (68) 
[93, 95]

>  <energy_score>  (68) 
901.7115232113208

>  <distance_score>  (68) 
6.741165937254864

>  <path>  (68) 
/opt/xchem-fragalysis-2/maxwin/BulkDock/SCRATCH/511018/C4685-P95/C4685-P95.minimised.mol

>  <scratch_subdir>  (68) 
/opt/xchem-fragalysis-2/maxwin/BulkDock/SCRATCH/511018/C4685-P95

>  <fragmenstein_runtime>  (68) 
10.484255075454712

>  <fragmenstein_outcome>  (68) 
too moved

>  <fragmenstein_mode>  (68) 
expansion

>  <fragmenstein_error>  (68) 


$$$$
C4698-P93
     RDKit          3D

 45 47  0  0  0  0  0  0  0  0999 V2000
   -1.2824   -0.7356   13.2035 C   0  0  0  0  0  0  0  0  0  0  0  0
   -0.4440   -1.9608   12.8933 C   0  0  0  0  0  0  0  0  0  0  0  0
    0.7441   -1.8208   11.8991 C   0  0  0  0  0  0  0  0  0  0  0  0
    0.1918   -1.5025   10.1947 C   0  0  0  0  0  0  0  0  0  0  0  0
   -1.0932   -0.8256    9.4585 N   0  0  0  0  0  0  0  0  0  0  0  0
   -1.9387   -1.3991    8.3941 C   0  0  0  0  0  0  0  0  0  0  0  0
   -3.3351   -0.8052    8.2812 C   0  0  0  0  0  0  0  0  0  0  0  0
   -3.2904    0.3035    9.2655 C   0  0  0  0  0  0  0  0  0  0  0  0
   -1.8068    0.4713    9.6688 C   0  0  0  0  0  0  0  0  0  0  0  0
    1.8342   -3.1963   12.5523 N   0  0  0  0  0  0  0  0  0  0  0  0
    3.8689   -3.4359   12.1728 S   0  0  0  0  0  0  0  0  0  0  0  0
    3.5210   -2.7949   10.9584 O   0  0  0  0  0  0  0  0  0  0  0  0
    3.9405   -4.8795   11.9965 O   0  0  0  0  0  0  0  0  0  0  0  0
    5.8084   -2.7306   13.2500 C   0  0  0  0  0  0  0  0  0  0  0  0
    5.8020   -2.8363   14.6229 C   0  0  0  0  0  0  0  0  0  0  0  0
    6.9930   -2.4359   15.1103 N   0  0  0  0  0  0  0  0  0  0  0  0
    8.0557   -2.6766   14.3072 C   0  0  0  0  0  0  0  0  0  0  0  0
    9.4799   -2.6089   14.8256 C   0  0  0  0  0  0  0  0  0  0  0  0
   10.2500   -1.4464   14.9203 C   0  0  0  0  0  0  0  0  0  0  0  0
    9.6441   -0.3362   14.4253 C   0  0  0  0  0  0  0  0  0  0  0  0
    8.2778   -0.5686   14.0317 C   0  0  0  0  0  0  0  0  0  0  0  0
    7.7072   -0.1939   15.2326 F   0  0  0  0  0  0  0  0  0  0  0  0
    7.3827   -1.8102   13.3154 C   0  0  0  0  0  0  0  0  0  0  0  0
   -1.6262   -0.1921   12.3414 H   0  0  0  0  0  0  0  0  0  0  0  0
   -2.1552   -1.0203   13.8002 H   0  0  0  0  0  0  0  0  0  0  0  0
   -0.7003   -0.0354   13.8126 H   0  0  0  0  0  0  0  0  0  0  0  0
   -1.0430   -2.8313   12.6574 H   0  0  0  0  0  0  0  0  0  0  0  0
   -0.0172   -2.2454   13.8637 H   0  0  0  0  0  0  0  0  0  0  0  0
    1.2988   -0.9337   12.1980 H   0  0  0  0  0  0  0  0  0  0  0  0
    0.9674   -0.8240    9.8384 H   0  0  0  0  0  0  0  0  0  0  0  0
    0.4944   -2.4048    9.6695 H   0  0  0  0  0  0  0  0  0  0  0  0
   -1.4305   -1.2778    7.4523 H   0  0  0  0  0  0  0  0  0  0  0  0
   -2.2704   -2.3980    8.5570 H   0  0  0  0  0  0  0  0  0  0  0  0
   -3.5895   -0.5539    7.2553 H   0  0  0  0  0  0  0  0  0  0  0  0
   -4.1185   -1.5107    8.5691 H   0  0  0  0  0  0  0  0  0  0  0  0
   -3.7908    1.2151    8.9691 H   0  0  0  0  0  0  0  0  0  0  0  0
   -3.9058    0.0247   10.1161 H   0  0  0  0  0  0  0  0  0  0  0  0
   -1.9390    0.8454   10.6855 H   0  0  0  0  0  0  0  0  0  0  0  0
   -1.3254    1.2474    9.0647 H   0  0  0  0  0  0  0  0  0  0  0  0
    1.5083   -4.0193   12.0302 H   0  0  0  0  0  0  0  0  0  0  0  0
    5.0540   -3.2307   15.2707 H   0  0  0  0  0  0  0  0  0  0  0  0
    7.1209   -1.7822   15.8637 H   0  0  0  0  0  0  0  0  0  0  0  0
    9.9894   -3.5537   15.0336 H   0  0  0  0  0  0  0  0  0  0  0  0
   11.2658   -1.4554   15.2922 H   0  0  0  0  0  0  0  0  0  0  0  0
   10.0278    0.6556   14.6180 H   0  0  0  0  0  0  0  0  0  0  0  0
  1  2  1  0
  2  3  1  0
  3  4  1  0
  4  5  1  0
  5  6  1  0
  6  7  1  0
  7  8  1  0
  8  9  1  0
  3 10  1  0
 10 11  1  0
 11 12  2  0
 11 13  2  0
 11 14  1  0
 14 15  2  0
 15 16  1  0
 16 17  1  0
 17 18  2  0
 18 19  1  0
 19 20  2  0
 20 21  1  0
 21 22  1  0
 21 23  2  0
  9  5  1  0
 23 14  1  0
 23 17  1  0
  1 24  1  0
  1 25  1  0
  1 26  1  0
  2 27  1  0
  2 28  1  0
  3 29  1  0
  4 30  1  0
  4 31  1  0
  6 32  1  0
  6 33  1  0
  7 34  1  0
  7 35  1  0
  8 36  1  0
  8 37  1  0
  9 38  1  0
  9 39  1  0
 10 40  1  0
 15 41  1  0
 16 42  1  0
 18 43  1  0
 19 44  1  0
 20 45  1  0
M  END
>  <Energy>  (69) 
586.0316423884384

>  <compound_id>  (69) 
4698

>  <target_id>  (69) 
1

>  <reference_id>  (69) 
93

>  <inspiration_ids>  (69) 
[93, 95]

>  <energy_score>  (69) 
519.2633763485653

>  <distance_score>  (69) 
8.360646910234667

>  <path>  (69) 
/opt/xchem-fragalysis-2/maxwin/BulkDock/SCRATCH/511018/C4698-P93/C4698-P93.minimised.mol

>  <scratch_subdir>  (69) 
/opt/xchem-fragalysis-2/maxwin/BulkDock/SCRATCH/511018/C4698-P93

>  <fragmenstein_runtime>  (69) 
7.267777442932129

>  <fragmenstein_outcome>  (69) 
too moved

>  <fragmenstein_mode>  (69) 
expansion

>  <fragmenstein_error>  (69) 


$$$$
C4698-P95
     RDKit          3D

 45 47  0  0  0  0  0  0  0  0999 V2000
   -2.0323    0.2527    9.2220 C   0  0  0  0  0  0  0  0  0  0  0  0
   -0.9369   -0.9463   10.2431 C   0  0  0  0  0  0  0  0  0  0  0  0
   -0.1282   -2.0918   10.0141 C   0  0  0  0  0  0  0  0  0  0  0  0
   -1.7887   -1.8235    8.7865 C   0  0  0  0  0  0  0  0  0  0  0  0
   -3.4438   -1.9738    8.2936 N   0  0  0  0  0  0  0  0  0  0  0  0
   -3.6046   -2.5969    6.9604 C   0  0  0  0  0  0  0  0  0  0  0  0
   -5.0902   -2.5424    6.6299 C   0  0  0  0  0  0  0  0  0  0  0  0
   -5.6275   -1.3809    7.4296 C   0  0  0  0  0  0  0  0  0  0  0  0
   -4.4544   -0.9136    8.2884 C   0  0  0  0  0  0  0  0  0  0  0  0
    1.6809   -1.6411   11.0356 N   0  0  0  0  0  0  0  0  0  0  0  0
    3.6813   -2.8455   11.6299 S   0  0  0  0  0  0  0  0  0  0  0  0
    4.0469   -3.9275   10.7495 O   0  0  0  0  0  0  0  0  0  0  0  0
    3.0788   -3.4393   12.8466 O   0  0  0  0  0  0  0  0  0  0  0  0
    5.7714   -2.2692   12.6191 C   0  0  0  0  0  0  0  0  0  0  0  0
    5.7843   -2.4384   14.1120 C   0  0  0  0  0  0  0  0  0  0  0  0
    6.8994   -2.0643   14.7348 N   0  0  0  0  0  0  0  0  0  0  0  0
    7.9753   -2.2178   13.9685 C   0  0  0  0  0  0  0  0  0  0  0  0
    9.3346   -2.1932   14.6019 C   0  0  0  0  0  0  0  0  0  0  0  0
   10.1680   -1.0719   14.6248 C   0  0  0  0  0  0  0  0  0  0  0  0
    9.6403    0.0527   14.0577 C   0  0  0  0  0  0  0  0  0  0  0  0
    8.2599   -0.1078   13.6582 C   0  0  0  0  0  0  0  0  0  0  0  0
    7.7254    0.2610   14.8796 F   0  0  0  0  0  0  0  0  0  0  0  0
    7.3311   -1.3306   12.9272 C   0  0  0  0  0  0  0  0  0  0  0  0
   -1.7514    1.3179    9.2365 H   0  0  0  0  0  0  0  0  0  0  0  0
   -2.1602    0.1079    8.1551 H   0  0  0  0  0  0  0  0  0  0  0  0
   -3.0560    0.2117    9.5629 H   0  0  0  0  0  0  0  0  0  0  0  0
   -1.0214   -0.8259   11.3553 H   0  0  0  0  0  0  0  0  0  0  0  0
    0.0381   -0.6355    9.8673 H   0  0  0  0  0  0  0  0  0  0  0  0
    0.4351   -2.1793    9.0875 H   0  0  0  0  0  0  0  0  0  0  0  0
   -2.2384   -2.7629    8.9161 H   0  0  0  0  0  0  0  0  0  0  0  0
   -1.5912   -1.5789    7.7400 H   0  0  0  0  0  0  0  0  0  0  0  0
   -3.0615   -2.0191    6.2059 H   0  0  0  0  0  0  0  0  0  0  0  0
   -3.2723   -3.6363    6.9547 H   0  0  0  0  0  0  0  0  0  0  0  0
   -5.2570   -2.4122    5.5557 H   0  0  0  0  0  0  0  0  0  0  0  0
   -5.6004   -3.4614    6.9292 H   0  0  0  0  0  0  0  0  0  0  0  0
   -6.4825   -1.6851    8.0402 H   0  0  0  0  0  0  0  0  0  0  0  0
   -5.9717   -0.5763    6.7699 H   0  0  0  0  0  0  0  0  0  0  0  0
   -4.8198   -0.6521    9.2773 H   0  0  0  0  0  0  0  0  0  0  0  0
   -4.1168   -0.0045    7.8247 H   0  0  0  0  0  0  0  0  0  0  0  0
    1.2598   -1.7149   11.9808 H   0  0  0  0  0  0  0  0  0  0  0  0
    4.9831   -2.7440   14.7548 H   0  0  0  0  0  0  0  0  0  0  0  0
    6.9979   -1.5006   15.5644 H   0  0  0  0  0  0  0  0  0  0  0  0
    9.7270   -3.1390   14.9716 H   0  0  0  0  0  0  0  0  0  0  0  0
   11.1580   -1.1038   15.0603 H   0  0  0  0  0  0  0  0  0  0  0  0
   10.0763    1.0281   14.2244 H   0  0  0  0  0  0  0  0  0  0  0  0
  1  2  1  0
  2  3  1  0
  3  4  1  0
  4  5  1  0
  5  6  1  0
  6  7  1  0
  7  8  1  0
  8  9  1  0
  3 10  1  0
 10 11  1  0
 11 12  2  0
 11 13  2  0
 11 14  1  0
 14 15  2  0
 15 16  1  0
 16 17  1  0
 17 18  2  0
 18 19  1  0
 19 20  2  0
 20 21  1  0
 21 22  1  0
 21 23  2  0
  9  5  1  0
 23 14  1  0
 23 17  1  0
  1 24  1  0
  1 25  1  0
  1 26  1  0
  2 27  1  0
  2 28  1  0
  3 29  1  0
  4 30  1  0
  4 31  1  0
  6 32  1  0
  6 33  1  0
  7 34  1  0
  7 35  1  0
  8 36  1  0
  8 37  1  0
  9 38  1  0
  9 39  1  0
 10 40  1  0
 15 41  1  0
 16 42  1  0
 18 43  1  0
 19 44  1  0
 20 45  1  0
M  END
>  <Energy>  (70) 
1120.6658668245177

>  <compound_id>  (70) 
4698

>  <target_id>  (70) 
1

>  <reference_id>  (70) 
95

>  <inspiration_ids>  (70) 
[93, 95]

>  <energy_score>  (70) 
1053.8976007846552

>  <distance_score>  (70) 
7.097196204524233

>  <path>  (70) 
/opt/xchem-fragalysis-2/maxwin/BulkDock/SCRATCH/511018/C4698-P95/C4698-P95.minimised.mol

>  <scratch_subdir>  (70) 
/opt/xchem-fragalysis-2/maxwin/BulkDock/SCRATCH/511018/C4698-P95

>  <fragmenstein_runtime>  (70) 
7.520268440246582

>  <fragmenstein_outcome>  (70) 
too moved

>  <fragmenstein_mode>  (70) 
expansion

>  <fragmenstein_error>  (70) 


$$$$
C4699-P93
     RDKit          3D

 44 46  0  0  0  0  0  0  0  0999 V2000
   -1.3742    0.7342   15.5814 C   0  0  0  0  0  0  0  0  0  0  0  0
   -0.4866    1.7494   14.8645 C   0  0  0  0  0  0  0  0  0  0  0  0
   -1.4271    2.7108   13.9986 C   0  0  0  0  0  0  0  0  0  0  0  0
   -1.6359    2.3923   12.5841 N   0  0  0  0  0  0  0  0  0  0  0  0
   -2.2792    1.1397   12.1879 C   0  0  0  0  0  0  0  0  0  0  0  0
   -2.4358    1.3123   10.6480 C   0  0  0  0  0  0  0  0  0  0  0  0
   -2.1870    2.7952   10.3777 C   0  0  0  0  0  0  0  0  0  0  0  0
   -2.2243    3.4391   11.7589 C   0  0  0  0  0  0  0  0  0  0  0  0
    0.5126    2.4470   15.7597 N   0  0  0  0  0  0  0  0  0  0  0  0
    1.5018    1.9022   16.7174 C   0  0  0  0  0  0  0  0  0  0  0  0
    1.6995    0.7726   17.0792 O   0  0  0  0  0  0  0  0  0  0  0  0
    2.3885    3.0555   17.3735 C   0  0  0  0  0  0  0  0  0  0  0  0
    3.9104    2.7865   17.5942 C   0  0  0  0  0  0  0  0  0  0  0  0
    4.6541    1.7839   18.2148 C   0  0  0  0  0  0  0  0  0  0  0  0
    6.0178    1.9019   17.7689 C   0  0  0  0  0  0  0  0  0  0  0  0
    7.1223    1.0259   17.7046 C   0  0  0  0  0  0  0  0  0  0  0  0
    8.2367    1.4069   16.9431 C   0  0  0  0  0  0  0  0  0  0  0  0
    9.3627    0.2287   16.3856 Cl  0  0  0  0  0  0  0  0  0  0  0  0
    8.3794    2.7043   16.4713 C   0  0  0  0  0  0  0  0  0  0  0  0
    7.3255    3.6095   16.5889 C   0  0  0  0  0  0  0  0  0  0  0  0
    6.1323    3.1405   17.1556 C   0  0  0  0  0  0  0  0  0  0  0  0
    4.8632    3.6876   17.1353 N   0  0  0  0  0  0  0  0  0  0  0  0
   -2.0362    0.2075   14.8885 H   0  0  0  0  0  0  0  0  0  0  0  0
   -1.9899    1.2263   16.3420 H   0  0  0  0  0  0  0  0  0  0  0  0
   -0.7658   -0.0179   16.0946 H   0  0  0  0  0  0  0  0  0  0  0  0
    0.1560    1.1635   14.2115 H   0  0  0  0  0  0  0  0  0  0  0  0
   -2.3949    2.8291   14.5026 H   0  0  0  0  0  0  0  0  0  0  0  0
   -0.9525    3.7003   14.0319 H   0  0  0  0  0  0  0  0  0  0  0  0
   -3.2326    1.0144   12.7053 H   0  0  0  0  0  0  0  0  0  0  0  0
   -1.6706    0.2670   12.4412 H   0  0  0  0  0  0  0  0  0  0  0  0
   -1.7680    0.7100   10.0352 H   0  0  0  0  0  0  0  0  0  0  0  0
   -3.3658    0.9197   10.2630 H   0  0  0  0  0  0  0  0  0  0  0  0
   -2.8690    3.2599    9.6648 H   0  0  0  0  0  0  0  0  0  0  0  0
   -1.1960    2.9293    9.9318 H   0  0  0  0  0  0  0  0  0  0  0  0
   -3.2487    3.6704   12.0705 H   0  0  0  0  0  0  0  0  0  0  0  0
   -1.6339    4.3607   11.7713 H   0  0  0  0  0  0  0  0  0  0  0  0
    0.6844    3.4357   15.6319 H   0  0  0  0  0  0  0  0  0  0  0  0
    1.9434    3.2688   18.3530 H   0  0  0  0  0  0  0  0  0  0  0  0
    2.2928    3.9638   16.7674 H   0  0  0  0  0  0  0  0  0  0  0  0
    4.2184    0.9240   18.7108 H   0  0  0  0  0  0  0  0  0  0  0  0
    7.0043    0.0343   18.1110 H   0  0  0  0  0  0  0  0  0  0  0  0
    9.2709    3.0004   15.9246 H   0  0  0  0  0  0  0  0  0  0  0  0
    7.3833    4.5949   16.1372 H   0  0  0  0  0  0  0  0  0  0  0  0
    4.6357    4.5304   16.6287 H   0  0  0  0  0  0  0  0  0  0  0  0
  1  2  1  0
  2  3  1  0
  3  4  1  0
  4  5  1  0
  5  6  1  0
  6  7  1  0
  7  8  1  0
  2  9  1  0
  9 10  1  0
 10 11  2  0
 10 12  1  0
 12 13  1  0
 13 14  2  0
 14 15  1  0
 15 16  2  0
 16 17  1  0
 17 18  1  0
 17 19  2  0
 19 20  1  0
 20 21  2  0
 21 22  1  0
  8  4  1  0
 22 13  1  0
 21 15  1  0
  1 23  1  0
  1 24  1  0
  1 25  1  0
  2 26  1  0
  3 27  1  0
  3 28  1  0
  5 29  1  0
  5 30  1  0
  6 31  1  0
  6 32  1  0
  7 33  1  0
  7 34  1  0
  8 35  1  0
  8 36  1  0
  9 37  1  0
 12 38  1  0
 12 39  1  0
 14 40  1  0
 16 41  1  0
 19 42  1  0
 20 43  1  0
 22 44  1  0
M  END
>  <Energy>  (71) 
83.626405567066939

>  <compound_id>  (71) 
4699

>  <target_id>  (71) 
1

>  <reference_id>  (71) 
93

>  <inspiration_ids>  (71) 
[93, 95]

>  <energy_score>  (71) 
-3.406407937385893

>  <distance_score>  (71) 
10.692307993950648

>  <path>  (71) 
/opt/xchem-fragalysis-2/maxwin/BulkDock/SCRATCH/511018/C4699-P93/C4699-P93.minimised.mol

>  <scratch_subdir>  (71) 
/opt/xchem-fragalysis-2/maxwin/BulkDock/SCRATCH/511018/C4699-P93

>  <fragmenstein_runtime>  (71) 
14.457770586013794

>  <fragmenstein_outcome>  (71) 
too moved

>  <fragmenstein_mode>  (71) 
expansion

>  <fragmenstein_error>  (71) 


$$$$
C4699-P95
     RDKit          3D

 44 46  0  0  0  0  0  0  0  0999 V2000
   -2.1962   -1.4775    7.7758 C   0  0  0  0  0  0  0  0  0  0  0  0
   -1.8998   -0.8079    9.1560 C   0  0  0  0  0  0  0  0  0  0  0  0
   -3.7471   -0.3677    9.1177 C   0  0  0  0  0  0  0  0  0  0  0  0
   -4.9428   -1.0949    8.4450 N   0  0  0  0  0  0  0  0  0  0  0  0
   -4.9594   -1.5579    7.0482 C   0  0  0  0  0  0  0  0  0  0  0  0
   -6.4055   -1.9539    6.7750 C   0  0  0  0  0  0  0  0  0  0  0  0
   -7.2193   -1.0405    7.6601 C   0  0  0  0  0  0  0  0  0  0  0  0
   -6.1895   -0.3033    8.5092 C   0  0  0  0  0  0  0  0  0  0  0  0
   -0.4856   -1.4734   10.3015 N   0  0  0  0  0  0  0  0  0  0  0  0
    1.3559   -1.3375   10.2239 C   0  0  0  0  0  0  0  0  0  0  0  0
    1.6502   -0.6578    9.3700 O   0  0  0  0  0  0  0  0  0  0  0  0
    3.1180   -2.2049   11.0926 C   0  0  0  0  0  0  0  0  0  0  0  0
    5.0406   -2.5061   11.9255 C   0  0  0  0  0  0  0  0  0  0  0  0
    6.3647   -1.3728   11.9309 C   0  0  0  0  0  0  0  0  0  0  0  0
    7.2692   -1.0356   13.0108 C   0  0  0  0  0  0  0  0  0  0  0  0
    8.3235   -0.0334   13.3778 C   0  0  0  0  0  0  0  0  0  0  0  0
    9.1226   -0.1018   14.5076 C   0  0  0  0  0  0  0  0  0  0  0  0
   10.3435    1.0573   14.8149 Cl  0  0  0  0  0  0  0  0  0  0  0  0
    9.0135   -1.2424   15.2290 C   0  0  0  0  0  0  0  0  0  0  0  0
    7.9905   -2.1627   14.9220 C   0  0  0  0  0  0  0  0  0  0  0  0
    7.0231   -1.9698   13.9235 C   0  0  0  0  0  0  0  0  0  0  0  0
    5.7884   -2.5151   13.5871 N   0  0  0  0  0  0  0  0  0  0  0  0
   -2.8149   -0.8058    7.1948 H   0  0  0  0  0  0  0  0  0  0  0  0
   -1.4868   -1.5788    6.9684 H   0  0  0  0  0  0  0  0  0  0  0  0
   -2.7135   -2.4215    7.9407 H   0  0  0  0  0  0  0  0  0  0  0  0
   -1.6590    0.2388    9.1331 H   0  0  0  0  0  0  0  0  0  0  0  0
   -3.7041    0.6017    8.6056 H   0  0  0  0  0  0  0  0  0  0  0  0
   -4.1249   -0.0975   10.1017 H   0  0  0  0  0  0  0  0  0  0  0  0
   -4.6931   -0.7599    6.3480 H   0  0  0  0  0  0  0  0  0  0  0  0
   -4.3479   -2.4395    6.8484 H   0  0  0  0  0  0  0  0  0  0  0  0
   -6.6645   -1.8389    5.7177 H   0  0  0  0  0  0  0  0  0  0  0  0
   -6.5807   -3.0010    7.0469 H   0  0  0  0  0  0  0  0  0  0  0  0
   -7.8175   -0.3367    7.0719 H   0  0  0  0  0  0  0  0  0  0  0  0
   -7.9067   -1.6287    8.2756 H   0  0  0  0  0  0  0  0  0  0  0  0
   -6.0325    0.6930    8.0766 H   0  0  0  0  0  0  0  0  0  0  0  0
   -6.5756   -0.1960    9.5247 H   0  0  0  0  0  0  0  0  0  0  0  0
   -0.7060   -1.9883   11.0905 H   0  0  0  0  0  0  0  0  0  0  0  0
    3.4110   -2.7312   10.1800 H   0  0  0  0  0  0  0  0  0  0  0  0
    3.5510   -1.2240   11.0817 H   0  0  0  0  0  0  0  0  0  0  0  0
    6.5952   -0.7717   11.0649 H   0  0  0  0  0  0  0  0  0  0  0  0
    8.6200    0.6906   12.6420 H   0  0  0  0  0  0  0  0  0  0  0  0
    9.7770   -1.4556   15.9642 H   0  0  0  0  0  0  0  0  0  0  0  0
    8.0471   -3.1289   15.3697 H   0  0  0  0  0  0  0  0  0  0  0  0
    5.1452   -2.7038   14.3425 H   0  0  0  0  0  0  0  0  0  0  0  0
  1  2  1  0
  2  3  1  0
  3  4  1  0
  4  5  1  0
  5  6  1  0
  6  7  1  0
  7  8  1  0
  2  9  1  0
  9 10  1  0
 10 11  2  0
 10 12  1  0
 12 13  1  0
 13 14  2  0
 14 15  1  0
 15 16  2  0
 16 17  1  0
 17 18  1  0
 17 19  2  0
 19 20  1  0
 20 21  2  0
 21 22  1  0
  8  4  1  0
 22 13  1  0
 21 15  1  0
  1 23  1  0
  1 24  1  0
  1 25  1  0
  2 26  1  0
  3 27  1  0
  3 28  1  0
  5 29  1  0
  5 30  1  0
  6 31  1  0
  6 32  1  0
  7 33  1  0
  7 34  1  0
  8 35  1  0
  8 36  1  0
  9 37  1  0
 12 38  1  0
 12 39  1  0
 14 40  1  0
 16 41  1  0
 19 42  1  0
 20 43  1  0
 22 44  1  0
M  END
>  <Energy>  (72) 
790.21846297008472

>  <compound_id>  (72) 
4699

>  <target_id>  (72) 
1

>  <reference_id>  (72) 
95

>  <inspiration_ids>  (72) 
[93, 95]

>  <energy_score>  (72) 
703.1856494656377

>  <distance_score>  (72) 
7.028859396488845

>  <path>  (72) 
/opt/xchem-fragalysis-2/maxwin/BulkDock/SCRATCH/511018/C4699-P95/C4699-P95.minimised.mol

>  <scratch_subdir>  (72) 
/opt/xchem-fragalysis-2/maxwin/BulkDock/SCRATCH/511018/C4699-P95

>  <fragmenstein_runtime>  (72) 
6.826009273529053

>  <fragmenstein_outcome>  (72) 
too moved

>  <fragmenstein_mode>  (72) 
expansion

>  <fragmenstein_error>  (72) 


$$$$
C4701-P93
     RDKit          3D

 50 52  0  0  0  0  0  0  0  0999 V2000
   10.1213   -2.9066   15.0053 C   0  0  0  0  0  0  0  0  0  0  0  0
    9.2594   -1.6232   14.9034 C   0  0  0  0  0  0  0  0  0  0  0  0
   10.2648   -0.5784   14.8622 C   0  0  0  0  0  0  0  0  0  0  0  0
   10.1568    0.3656   13.8847 C   0  0  0  0  0  0  0  0  0  0  0  0
    8.8736    0.3584   13.2683 C   0  0  0  0  0  0  0  0  0  0  0  0
    7.6556   -0.5824   12.9790 C   0  0  0  0  0  0  0  0  0  0  0  0
    5.9444   -0.7360   12.2787 C   0  0  0  0  0  0  0  0  0  0  0  0
    4.2678   -0.0821   11.2736 C   0  0  0  0  0  0  0  0  0  0  0  0
    2.3242   -0.7911   11.5114 C   0  0  0  0  0  0  0  0  0  0  0  0
    0.3804   -0.7500   11.5634 C   0  0  0  0  0  0  0  0  0  0  0  0
   -0.2470   -0.3360   12.5519 O   0  0  0  0  0  0  0  0  0  0  0  0
   -0.1921   -1.2366   10.0345 N   0  0  0  0  0  0  0  0  0  0  0  0
   -1.9684   -1.1670    9.2533 C   0  0  0  0  0  0  0  0  0  0  0  0
   -2.2074   -1.6826    7.8994 C   0  0  0  0  0  0  0  0  0  0  0  0
   -3.7484   -0.4233    9.2624 C   0  0  0  0  0  0  0  0  0  0  0  0
   -5.0111   -1.1036    8.6330 N   0  0  0  0  0  0  0  0  0  0  0  0
   -5.0403   -1.4488    7.2204 C   0  0  0  0  0  0  0  0  0  0  0  0
   -6.4615   -1.8809    6.8811 C   0  0  0  0  0  0  0  0  0  0  0  0
   -7.3142   -1.1130    7.8490 C   0  0  0  0  0  0  0  0  0  0  0  0
   -6.3043   -0.3787    8.7253 C   0  0  0  0  0  0  0  0  0  0  0  0
    6.3584   -2.0103   12.5569 C   0  0  0  0  0  0  0  0  0  0  0  0
    6.7678   -2.2251   13.9084 N   0  0  0  0  0  0  0  0  0  0  0  0
    7.9169   -1.5511   14.0919 C   0  0  0  0  0  0  0  0  0  0  0  0
   10.7766   -2.8930   15.8838 H   0  0  0  0  0  0  0  0  0  0  0  0
   10.8023   -3.0104   14.1519 H   0  0  0  0  0  0  0  0  0  0  0  0
    9.4722   -3.7610   15.0115 H   0  0  0  0  0  0  0  0  0  0  0  0
   11.2216   -0.6974   15.3681 H   0  0  0  0  0  0  0  0  0  0  0  0
   10.9338    1.0678   13.6240 H   0  0  0  0  0  0  0  0  0  0  0  0
    8.4872    0.5417   14.3448 H   0  0  0  0  0  0  0  0  0  0  0  0
    4.5039    0.3293   10.2927 H   0  0  0  0  0  0  0  0  0  0  0  0
    3.9884    0.9589   11.6635 H   0  0  0  0  0  0  0  0  0  0  0  0
    1.9551   -0.5882   10.4391 H   0  0  0  0  0  0  0  0  0  0  0  0
    2.6336   -1.8990   11.3170 H   0  0  0  0  0  0  0  0  0  0  0  0
    0.5874   -1.4408    9.4298 H   0  0  0  0  0  0  0  0  0  0  0  0
   -1.7863   -0.1425    8.9625 H   0  0  0  0  0  0  0  0  0  0  0  0
   -1.3404   -1.6310    7.2945 H   0  0  0  0  0  0  0  0  0  0  0  0
   -2.7397   -2.6298    7.9121 H   0  0  0  0  0  0  0  0  0  0  0  0
   -2.8111   -0.9644    7.3524 H   0  0  0  0  0  0  0  0  0  0  0  0
   -3.6825    0.5449    8.8000 H   0  0  0  0  0  0  0  0  0  0  0  0
   -4.0364   -0.1295   10.2729 H   0  0  0  0  0  0  0  0  0  0  0  0
   -4.4080   -2.2884    6.9502 H   0  0  0  0  0  0  0  0  0  0  0  0
   -4.8025   -0.5419    6.6583 H   0  0  0  0  0  0  0  0  0  0  0  0
   -6.7195   -1.6563    5.8417 H   0  0  0  0  0  0  0  0  0  0  0  0
   -6.5898   -2.9590    7.0310 H   0  0  0  0  0  0  0  0  0  0  0  0
   -7.9792   -0.4087    7.3383 H   0  0  0  0  0  0  0  0  0  0  0  0
   -7.9391   -1.8004    8.4251 H   0  0  0  0  0  0  0  0  0  0  0  0
   -6.2032    0.6350    8.3143 H   0  0  0  0  0  0  0  0  0  0  0  0
   -6.7170   -0.3421    9.7359 H   0  0  0  0  0  0  0  0  0  0  0  0
    7.0627   -2.3287   11.7925 H   0  0  0  0  0  0  0  0  0  0  0  0
    6.4280   -2.9793   14.4798 H   0  0  0  0  0  0  0  0  0  0  0  0
  1  2  1  0
  2  3  2  0
  3  4  1  0
  4  5  2  0
  5  6  1  0
  6  7  1  0
  7  8  1  0
  8  9  1  0
  9 10  1  0
 10 11  2  0
 10 12  1  0
 12 13  1  0
 13 14  1  0
 13 15  1  0
 15 16  1  0
 16 17  1  0
 17 18  1  0
 18 19  1  0
 19 20  1  0
  7 21  2  0
 21 22  1  0
 22 23  1  0
 23  2  1  0
 23  6  2  0
 20 16  1  0
  1 24  1  0
  1 25  1  0
  1 26  1  0
  3 27  1  0
  4 28  1  0
  5 29  1  0
  8 30  1  0
  8 31  1  0
  9 32  1  0
  9 33  1  0
 12 34  1  0
 13 35  1  0
 14 36  1  0
 14 37  1  0
 14 38  1  0
 15 39  1  0
 15 40  1  0
 17 41  1  0
 17 42  1  0
 18 43  1  0
 18 44  1  0
 19 45  1  0
 19 46  1  0
 20 47  1  0
 20 48  1  0
 21 49  1  0
 22 50  1  0
M  END
>  <Energy>  (73) 
795.73618526083044

>  <compound_id>  (73) 
4701

>  <target_id>  (73) 
1

>  <reference_id>  (73) 
93

>  <inspiration_ids>  (73) 
[93, 95]

>  <energy_score>  (73) 
736.9404741758945

>  <distance_score>  (73) 
6.7675400343649565

>  <path>  (73) 
/opt/xchem-fragalysis-2/maxwin/BulkDock/SCRATCH/511018/C4701-P93/C4701-P93.minimised.mol

>  <scratch_subdir>  (73) 
/opt/xchem-fragalysis-2/maxwin/BulkDock/SCRATCH/511018/C4701-P93

>  <fragmenstein_runtime>  (73) 
12.626571416854858

>  <fragmenstein_outcome>  (73) 
too moved

>  <fragmenstein_mode>  (73) 
expansion

>  <fragmenstein_error>  (73) 


$$$$
C4701-P95
     RDKit          3D

 50 52  0  0  0  0  0  0  0  0999 V2000
    6.9660   -1.2019   11.8210 C   0  0  0  0  0  0  0  0  0  0  0  0
    5.9796   -2.0271   12.4954 C   0  0  0  0  0  0  0  0  0  0  0  0
    6.0720   -2.1857   13.9402 C   0  0  0  0  0  0  0  0  0  0  0  0
    4.8779   -2.7819   14.4710 C   0  0  0  0  0  0  0  0  0  0  0  0
    3.4481   -3.3845   13.4883 C   0  0  0  0  0  0  0  0  0  0  0  0
    3.4604   -3.0783   12.1605 C   0  0  0  0  0  0  0  0  0  0  0  0
    2.5675   -2.0580   10.8994 C   0  0  0  0  0  0  0  0  0  0  0  0
    0.7108   -1.5907   10.4815 C   0  0  0  0  0  0  0  0  0  0  0  0
   -0.9585   -1.7199    9.4932 C   0  0  0  0  0  0  0  0  0  0  0  0
   -2.6349   -2.1118    8.5412 C   0  0  0  0  0  0  0  0  0  0  0  0
   -2.9196   -3.2606    8.4477 O   0  0  0  0  0  0  0  0  0  0  0  0
   -3.3253   -0.9400    8.0532 N   0  0  0  0  0  0  0  0  0  0  0  0
   -4.5597   -0.8057    7.1938 C   0  0  0  0  0  0  0  0  0  0  0  0
   -4.2994   -1.2580    5.7388 C   0  0  0  0  0  0  0  0  0  0  0  0
   -5.7882   -1.6359    7.6534 C   0  0  0  0  0  0  0  0  0  0  0  0
   -7.0046   -1.4706    6.8364 N   0  0  0  0  0  0  0  0  0  0  0  0
   -7.9673   -2.5581    7.0534 C   0  0  0  0  0  0  0  0  0  0  0  0
   -9.2181   -2.0348    6.3727 C   0  0  0  0  0  0  0  0  0  0  0  0
   -9.1155   -0.5182    6.4940 C   0  0  0  0  0  0  0  0  0  0  0  0
   -7.7532   -0.2509    7.1269 C   0  0  0  0  0  0  0  0  0  0  0  0
    3.3671   -2.8021    9.9955 C   0  0  0  0  0  0  0  0  0  0  0  0
    4.2116   -3.7600   10.8211 N   0  0  0  0  0  0  0  0  0  0  0  0
    4.7854   -2.9827   11.8007 C   0  0  0  0  0  0  0  0  0  0  0  0
    7.4537   -1.8974   11.1943 H   0  0  0  0  0  0  0  0  0  0  0  0
    7.5367   -0.6097   12.5237 H   0  0  0  0  0  0  0  0  0  0  0  0
    6.6640   -0.5537   11.0441 H   0  0  0  0  0  0  0  0  0  0  0  0
    6.9159   -1.8523   14.5229 H   0  0  0  0  0  0  0  0  0  0  0  0
    4.7938   -3.0945   15.5113 H   0  0  0  0  0  0  0  0  0  0  0  0
    2.6499   -3.9787   13.9474 H   0  0  0  0  0  0  0  0  0  0  0  0
    0.4190   -1.1988   11.4676 H   0  0  0  0  0  0  0  0  0  0  0  0
    1.1655   -1.0448    9.6511 H   0  0  0  0  0  0  0  0  0  0  0  0
   -1.2039   -1.6314   10.5198 H   0  0  0  0  0  0  0  0  0  0  0  0
   -1.3358   -0.8627    9.0150 H   0  0  0  0  0  0  0  0  0  0  0  0
   -2.8455   -0.1152    8.3829 H   0  0  0  0  0  0  0  0  0  0  0  0
   -4.9009    0.2242    7.2719 H   0  0  0  0  0  0  0  0  0  0  0  0
   -5.1890   -1.1478    5.1103 H   0  0  0  0  0  0  0  0  0  0  0  0
   -3.5230   -0.6958    5.2329 H   0  0  0  0  0  0  0  0  0  0  0  0
   -3.9962   -2.3112    5.7104 H   0  0  0  0  0  0  0  0  0  0  0  0
   -5.4917   -2.6850    7.5706 H   0  0  0  0  0  0  0  0  0  0  0  0
   -6.0068   -1.3936    8.6930 H   0  0  0  0  0  0  0  0  0  0  0  0
   -8.1692   -2.7147    8.1190 H   0  0  0  0  0  0  0  0  0  0  0  0
   -7.6336   -3.5030    6.6130 H   0  0  0  0  0  0  0  0  0  0  0  0
   -9.2324   -2.3222    5.3144 H   0  0  0  0  0  0  0  0  0  0  0  0
  -10.1294   -2.4230    6.8382 H   0  0  0  0  0  0  0  0  0  0  0  0
   -9.1848   -0.0592    5.5012 H   0  0  0  0  0  0  0  0  0  0  0  0
   -9.9232   -0.1097    7.1102 H   0  0  0  0  0  0  0  0  0  0  0  0
   -7.2815    0.6380    6.6971 H   0  0  0  0  0  0  0  0  0  0  0  0
   -7.8744   -0.0934    8.2062 H   0  0  0  0  0  0  0  0  0  0  0  0
    3.2500   -3.1437    8.9615 H   0  0  0  0  0  0  0  0  0  0  0  0
    4.5527   -4.5866   10.3642 H   0  0  0  0  0  0  0  0  0  0  0  0
  1  2  1  0
  2  3  2  0
  3  4  1  0
  4  5  2  0
  5  6  1  0
  6  7  1  0
  7  8  1  0
  8  9  1  0
  9 10  1  0
 10 11  2  0
 10 12  1  0
 12 13  1  0
 13 14  1  0
 13 15  1  0
 15 16  1  0
 16 17  1  0
 17 18  1  0
 18 19  1  0
 19 20  1  0
  7 21  2  0
 21 22  1  0
 22 23  1  0
 23  2  1  0
 23  6  2  0
 20 16  1  0
  1 24  1  0
  1 25  1  0
  1 26  1  0
  3 27  1  0
  4 28  1  0
  5 29  1  0
  8 30  1  0
  8 31  1  0
  9 32  1  0
  9 33  1  0
 12 34  1  0
 13 35  1  0
 14 36  1  0
 14 37  1  0
 14 38  1  0
 15 39  1  0
 15 40  1  0
 17 41  1  0
 17 42  1  0
 18 43  1  0
 18 44  1  0
 19 45  1  0
 19 46  1  0
 20 47  1  0
 20 48  1  0
 21 49  1  0
 22 50  1  0
M  END
>  <Energy>  (74) 
582.14083799907758

>  <compound_id>  (74) 
4701

>  <target_id>  (74) 
1

>  <reference_id>  (74) 
95

>  <inspiration_ids>  (74) 
[93, 95]

>  <energy_score>  (74) 
523.3451269141449

>  <distance_score>  (74) 
7.99667441216816

>  <path>  (74) 
/opt/xchem-fragalysis-2/maxwin/BulkDock/SCRATCH/511018/C4701-P95/C4701-P95.minimised.mol

>  <scratch_subdir>  (74) 
/opt/xchem-fragalysis-2/maxwin/BulkDock/SCRATCH/511018/C4701-P95

>  <fragmenstein_runtime>  (74) 
12.534785270690918

>  <fragmenstein_outcome>  (74) 
too moved

>  <fragmenstein_mode>  (74) 
expansion

>  <fragmenstein_error>  (74) 


$$$$
C4716-P93
     RDKit          3D

 41 43  0  0  0  0  0  0  0  0999 V2000
   -2.4960   -2.7053    8.4941 O   0  0  0  0  0  0  0  0  0  0  0  0
   -2.4330   -1.5307    8.6204 C   0  0  0  0  0  0  0  0  0  0  0  0
   -3.6463   -0.7059    8.1305 C   0  0  0  0  0  0  0  0  0  0  0  0
   -5.0260   -1.2964    8.0993 N   0  0  0  0  0  0  0  0  0  0  0  0
   -5.2113   -2.4473    7.1983 C   0  0  0  0  0  0  0  0  0  0  0  0
   -6.6774   -2.4441    6.7695 C   0  0  0  0  0  0  0  0  0  0  0  0
   -7.2280   -1.1351    7.2965 C   0  0  0  0  0  0  0  0  0  0  0  0
   -5.9831   -0.3095    7.5603 C   0  0  0  0  0  0  0  0  0  0  0  0
   -1.2899   -0.5803    9.3226 N   0  0  0  0  0  0  0  0  0  0  0  0
    0.6499   -0.9973   10.1916 C   0  0  0  0  0  0  0  0  0  0  0  0
    2.5049   -0.3754   11.2635 C   0  0  0  0  0  0  0  0  0  0  0  0
    4.6026   -0.5377   11.3322 C   0  0  0  0  0  0  0  0  0  0  0  0
    6.0990   -0.6077   10.8878 C   0  0  0  0  0  0  0  0  0  0  0  0
    7.4467   -1.1910   11.6510 C   0  0  0  0  0  0  0  0  0  0  0  0
    7.5990   -1.6270   13.1429 C   0  0  0  0  0  0  0  0  0  0  0  0
    8.4027   -2.3222   14.1231 N   0  0  0  0  0  0  0  0  0  0  0  0
    8.4282   -1.5641   15.2200 C   0  0  0  0  0  0  0  0  0  0  0  0
    7.0878   -1.4287   15.2659 C   0  0  0  0  0  0  0  0  0  0  0  0
    6.5017   -1.6364   13.8526 C   0  0  0  0  0  0  0  0  0  0  0  0
    5.6496   -1.0665   12.5102 C   0  0  0  0  0  0  0  0  0  0  0  0
   -3.7063    0.1801    8.7607 H   0  0  0  0  0  0  0  0  0  0  0  0
   -3.4063   -0.5252    7.0922 H   0  0  0  0  0  0  0  0  0  0  0  0
   -4.9397   -3.4280    7.5672 H   0  0  0  0  0  0  0  0  0  0  0  0
   -4.5667   -2.3792    6.3516 H   0  0  0  0  0  0  0  0  0  0  0  0
   -6.7645   -2.4877    5.6796 H   0  0  0  0  0  0  0  0  0  0  0  0
   -7.2326   -3.2918    7.1839 H   0  0  0  0  0  0  0  0  0  0  0  0
   -7.7783   -1.3069    8.2290 H   0  0  0  0  0  0  0  0  0  0  0  0
   -7.9058   -0.6537    6.5856 H   0  0  0  0  0  0  0  0  0  0  0  0
   -5.6245    0.1310    6.6209 H   0  0  0  0  0  0  0  0  0  0  0  0
   -6.1999    0.5017    8.2543 H   0  0  0  0  0  0  0  0  0  0  0  0
   -1.5208    0.3852    9.1731 H   0  0  0  0  0  0  0  0  0  0  0  0
    1.0135   -1.8773    9.7103 H   0  0  0  0  0  0  0  0  0  0  0  0
    0.2186   -0.9171   11.1449 H   0  0  0  0  0  0  0  0  0  0  0  0
    2.1937   -0.1140   12.3041 H   0  0  0  0  0  0  0  0  0  0  0  0
    2.8113    0.6065   10.7311 H   0  0  0  0  0  0  0  0  0  0  0  0
    6.5189   -0.1099   10.0215 H   0  0  0  0  0  0  0  0  0  0  0  0
    7.7711   -1.8212   10.8433 H   0  0  0  0  0  0  0  0  0  0  0  0
    9.3086   -2.6204   13.8218 H   0  0  0  0  0  0  0  0  0  0  0  0
    9.2970   -1.3291   15.8113 H   0  0  0  0  0  0  0  0  0  0  0  0
    6.7796   -0.8076   16.1009 H   0  0  0  0  0  0  0  0  0  0  0  0
    5.6614   -2.2725   12.3865 H   0  0  0  0  0  0  0  0  0  0  0  0
  1  2  2  0
  2  3  1  0
  3  4  1  0
  4  5  1  0
  5  6  1  0
  6  7  1  0
  7  8  1  0
  2  9  1  0
  9 10  1  0
 10 11  1  0
 11 12  1  0
 12 13  2  0
 13 14  1  0
 14 15  2  0
 15 16  1  0
 16 17  1  0
 17 18  2  0
 18 19  1  0
 19 20  2  0
  8  4  1  0
 20 12  1  0
 19 15  1  0
  3 21  1  0
  3 22  1  0
  5 23  1  0
  5 24  1  0
  6 25  1  0
  6 26  1  0
  7 27  1  0
  7 28  1  0
  8 29  1  0
  8 30  1  0
  9 31  1  0
 10 32  1  0
 10 33  1  0
 11 34  1  0
 11 35  1  0
 13 36  1  0
 14 37  1  0
 16 38  1  0
 17 39  1  0
 18 40  1  0
 20 41  1  0
M  END
>  <Energy>  (75) 
1004.5022020478482

>  <compound_id>  (75) 
4716

>  <target_id>  (75) 
1

>  <reference_id>  (75) 
93

>  <inspiration_ids>  (75) 
[93, 95]

>  <energy_score>  (75) 
930.9997324349661

>  <distance_score>  (75) 
6.977509134016907

>  <path>  (75) 
/opt/xchem-fragalysis-2/maxwin/BulkDock/SCRATCH/511018/C4716-P93/C4716-P93.minimised.mol

>  <scratch_subdir>  (75) 
/opt/xchem-fragalysis-2/maxwin/BulkDock/SCRATCH/511018/C4716-P93

>  <fragmenstein_runtime>  (75) 
8.13979458808899

>  <fragmenstein_outcome>  (75) 
too moved

>  <fragmenstein_mode>  (75) 
expansion

>  <fragmenstein_error>  (75) 


$$$$
C4716-P95
     RDKit          3D

 41 43  0  0  0  0  0  0  0  0999 V2000
   -3.4263   -3.3704    7.4621 O   0  0  0  0  0  0  0  0  0  0  0  0
   -3.1675   -2.2467    7.1319 C   0  0  0  0  0  0  0  0  0  0  0  0
   -3.9534   -1.6165    5.9372 C   0  0  0  0  0  0  0  0  0  0  0  0
   -5.1138   -2.4088    5.4748 N   0  0  0  0  0  0  0  0  0  0  0  0
   -6.1459   -2.5974    6.5033 C   0  0  0  0  0  0  0  0  0  0  0  0
   -7.4613   -2.7653    5.7489 C   0  0  0  0  0  0  0  0  0  0  0  0
   -7.1064   -2.5439    4.2895 C   0  0  0  0  0  0  0  0  0  0  0  0
   -5.7987   -1.7748    4.3494 C   0  0  0  0  0  0  0  0  0  0  0  0
   -2.2556   -1.2528    7.7360 N   0  0  0  0  0  0  0  0  0  0  0  0
   -1.4174   -1.3011    9.0570 C   0  0  0  0  0  0  0  0  0  0  0  0
    0.5040   -1.3511   10.1227 C   0  0  0  0  0  0  0  0  0  0  0  0
    2.3913   -1.7813   10.8949 C   0  0  0  0  0  0  0  0  0  0  0  0
    3.7164   -0.9137   11.1309 C   0  0  0  0  0  0  0  0  0  0  0  0
    5.4442   -0.6499   11.8407 C   0  0  0  0  0  0  0  0  0  0  0  0
    6.2677   -1.6295   12.1424 C   0  0  0  0  0  0  0  0  0  0  0  0
    7.3190   -1.4589   13.0121 N   0  0  0  0  0  0  0  0  0  0  0  0
    7.0825   -1.9669   14.2293 C   0  0  0  0  0  0  0  0  0  0  0  0
    5.8579   -2.5399   14.0327 C   0  0  0  0  0  0  0  0  0  0  0  0
    5.3126   -2.7518   12.2948 C   0  0  0  0  0  0  0  0  0  0  0  0
    3.5902   -2.9144   11.7527 C   0  0  0  0  0  0  0  0  0  0  0  0
   -4.3270   -0.6463    6.2593 H   0  0  0  0  0  0  0  0  0  0  0  0
   -3.2619   -1.4992    5.1002 H   0  0  0  0  0  0  0  0  0  0  0  0
   -6.2220   -1.7383    7.1811 H   0  0  0  0  0  0  0  0  0  0  0  0
   -5.9443   -3.4897    7.0949 H   0  0  0  0  0  0  0  0  0  0  0  0
   -8.1872   -2.0158    6.0841 H   0  0  0  0  0  0  0  0  0  0  0  0
   -7.9016   -3.7551    5.9039 H   0  0  0  0  0  0  0  0  0  0  0  0
   -6.9571   -3.5097    3.7910 H   0  0  0  0  0  0  0  0  0  0  0  0
   -7.8881   -2.0013    3.7498 H   0  0  0  0  0  0  0  0  0  0  0  0
   -5.2328   -1.8710    3.4177 H   0  0  0  0  0  0  0  0  0  0  0  0
   -5.9957   -0.7114    4.5364 H   0  0  0  0  0  0  0  0  0  0  0  0
   -2.3474   -0.3867    7.2499 H   0  0  0  0  0  0  0  0  0  0  0  0
   -2.1618   -0.5017    9.2597 H   0  0  0  0  0  0  0  0  0  0  0  0
   -2.0887   -2.1329    9.2051 H   0  0  0  0  0  0  0  0  0  0  0  0
   -0.0292   -0.9688   11.0553 H   0  0  0  0  0  0  0  0  0  0  0  0
    0.3781   -2.0467   10.8800 H   0  0  0  0  0  0  0  0  0  0  0  0
    3.7758   -1.8452   10.3806 H   0  0  0  0  0  0  0  0  0  0  0  0
    5.5278    0.1392   12.5126 H   0  0  0  0  0  0  0  0  0  0  0  0
    8.0842   -0.8276   12.8146 H   0  0  0  0  0  0  0  0  0  0  0  0
    7.7153   -1.7651   15.0784 H   0  0  0  0  0  0  0  0  0  0  0  0
    5.1726   -2.8316   14.8162 H   0  0  0  0  0  0  0  0  0  0  0  0
    3.1666   -3.6811   12.4382 H   0  0  0  0  0  0  0  0  0  0  0  0
  1  2  2  0
  2  3  1  0
  3  4  1  0
  4  5  1  0
  5  6  1  0
  6  7  1  0
  7  8  1  0
  2  9  1  0
  9 10  1  0
 10 11  1  0
 11 12  1  0
 12 13  2  0
 13 14  1  0
 14 15  2  0
 15 16  1  0
 16 17  1  0
 17 18  2  0
 18 19  1  0
 19 20  2  0
  8  4  1  0
 20 12  1  0
 19 15  1  0
  3 21  1  0
  3 22  1  0
  5 23  1  0
  5 24  1  0
  6 25  1  0
  6 26  1  0
  7 27  1  0
  7 28  1  0
  8 29  1  0
  8 30  1  0
  9 31  1  0
 10 32  1  0
 10 33  1  0
 11 34  1  0
 11 35  1  0
 13 36  1  0
 14 37  1  0
 16 38  1  0
 17 39  1  0
 18 40  1  0
 20 41  1  0
M  END
>  <Energy>  (76) 
942.02759486868933

>  <compound_id>  (76) 
4716

>  <target_id>  (76) 
1

>  <reference_id>  (76) 
95

>  <inspiration_ids>  (76) 
[93, 95]

>  <energy_score>  (76) 
868.5251252558141

>  <distance_score>  (76) 
7.683129802683267

>  <path>  (76) 
/opt/xchem-fragalysis-2/maxwin/BulkDock/SCRATCH/511018/C4716-P95/C4716-P95.minimised.mol

>  <scratch_subdir>  (76) 
/opt/xchem-fragalysis-2/maxwin/BulkDock/SCRATCH/511018/C4716-P95

>  <fragmenstein_runtime>  (76) 
12.051017761230469

>  <fragmenstein_outcome>  (76) 
too moved

>  <fragmenstein_mode>  (76) 
expansion

>  <fragmenstein_error>  (76) 


$$$$
C4717-P93
     RDKit          3D

 53 56  0  0  0  0  0  0  0  0999 V2000
    0.7293   -0.3421    0.7068 C   0  0  0  0  0  0  0  0  0  0  0  0
    1.8366   -1.3914    0.5314 C   0  0  0  0  0  0  0  0  0  0  0  0
    3.1556   -0.6719    0.2277 C   0  0  0  0  0  0  0  0  0  0  0  0
    1.4498   -2.3341   -0.6135 C   0  0  0  0  0  0  0  0  0  0  0  0
    1.9024   -2.0702    1.7943 O   0  0  0  0  0  0  0  0  0  0  0  0
    2.7716   -3.1975    1.8940 C   0  0  0  0  0  0  0  0  0  0  0  0
    2.8564   -3.6097    3.3642 C   0  0  0  0  0  0  0  0  0  0  0  0
    2.9525   -5.0248    3.6496 N   0  0  0  0  0  0  0  0  0  0  0  0
    3.9087   -5.7043    4.4610 C   0  0  0  0  0  0  0  0  0  0  0  0
    5.3166   -5.3947    5.3837 C   0  0  0  0  0  0  0  0  0  0  0  0
    5.6740   -6.4106    6.2703 C   0  0  0  0  0  0  0  0  0  0  0  0
    6.7410   -6.0405    7.0349 N   0  0  0  0  0  0  0  0  0  0  0  0
    7.2034   -4.8235    6.6144 C   0  0  0  0  0  0  0  0  0  0  0  0
    8.3277   -4.1210    7.0841 C   0  0  0  0  0  0  0  0  0  0  0  0
    8.6457   -2.9228    6.4569 C   0  0  0  0  0  0  0  0  0  0  0  0
    7.8596   -2.4585    5.4048 C   0  0  0  0  0  0  0  0  0  0  0  0
    6.7225   -3.1710    4.9570 C   0  0  0  0  0  0  0  0  0  0  0  0
    6.3496   -4.3884    5.5692 C   0  0  0  0  0  0  0  0  0  0  0  0
    3.4728   -6.9556    4.5521 N   0  0  0  0  0  0  0  0  0  0  0  0
    2.2429   -7.0798    3.9871 N   0  0  0  0  0  0  0  0  0  0  0  0
    1.8625   -5.9218    3.5023 C   0  0  0  0  0  0  0  0  0  0  0  0
    0.5477   -5.6239    3.2179 N   0  0  0  0  0  0  0  0  0  0  0  0
   -0.4344   -6.6840    3.5579 C   0  0  0  0  0  0  0  0  0  0  0  0
   -1.7534   -6.1717    3.0041 C   0  0  0  0  0  0  0  0  0  0  0  0
   -1.3294   -5.4899    1.7202 C   0  0  0  0  0  0  0  0  0  0  0  0
    0.1027   -4.9898    1.9741 C   0  0  0  0  0  0  0  0  0  0  0  0
    0.5856    0.2548   -0.1999 H   0  0  0  0  0  0  0  0  0  0  0  0
    0.9630    0.3368    1.5356 H   0  0  0  0  0  0  0  0  0  0  0  0
   -0.2237   -0.8215    0.9604 H   0  0  0  0  0  0  0  0  0  0  0  0
    3.4826   -0.0783    1.0889 H   0  0  0  0  0  0  0  0  0  0  0  0
    3.0588   -0.0078   -0.6380 H   0  0  0  0  0  0  0  0  0  0  0  0
    3.9608   -1.3805    0.0079 H   0  0  0  0  0  0  0  0  0  0  0  0
    1.2630   -1.7810   -1.5403 H   0  0  0  0  0  0  0  0  0  0  0  0
    2.2413   -3.0628   -0.8190 H   0  0  0  0  0  0  0  0  0  0  0  0
    0.5489   -2.9048   -0.3628 H   0  0  0  0  0  0  0  0  0  0  0  0
    2.4283   -4.0093    1.2538 H   0  0  0  0  0  0  0  0  0  0  0  0
    3.7779   -2.9284    1.5565 H   0  0  0  0  0  0  0  0  0  0  0  0
    1.9973   -3.2094    3.9026 H   0  0  0  0  0  0  0  0  0  0  0  0
    3.7622   -3.1596    3.7705 H   0  0  0  0  0  0  0  0  0  0  0  0
    5.2036   -7.3711    6.4404 H   0  0  0  0  0  0  0  0  0  0  0  0
    7.1659   -6.6029    7.7607 H   0  0  0  0  0  0  0  0  0  0  0  0
    8.9454   -4.5174    7.8836 H   0  0  0  0  0  0  0  0  0  0  0  0
    9.5122   -2.3513    6.7776 H   0  0  0  0  0  0  0  0  0  0  0  0
    8.1158   -1.5183    4.9200 H   0  0  0  0  0  0  0  0  0  0  0  0
    6.1418   -2.7728    4.1310 H   0  0  0  0  0  0  0  0  0  0  0  0
   -0.1681   -7.6276    3.0639 H   0  0  0  0  0  0  0  0  0  0  0  0
   -0.4944   -6.8534    4.6377 H   0  0  0  0  0  0  0  0  0  0  0  0
   -2.2084   -5.4569    3.6927 H   0  0  0  0  0  0  0  0  0  0  0  0
   -2.4719   -6.9773    2.8291 H   0  0  0  0  0  0  0  0  0  0  0  0
   -2.0048   -4.6809    1.4271 H   0  0  0  0  0  0  0  0  0  0  0  0
   -1.3179   -6.2177    0.8994 H   0  0  0  0  0  0  0  0  0  0  0  0
    0.7309   -5.2746    1.1241 H   0  0  0  0  0  0  0  0  0  0  0  0
    0.0958   -3.9028    2.0782 H   0  0  0  0  0  0  0  0  0  0  0  0
  1  2  1  0
  2  3  1  0
  2  4  1  0
  2  5  1  0
  5  6  1  0
  6  7  1  0
  7  8  1  0
  8  9  1  0
  9 10  1  0
 10 11  2  0
 11 12  1  0
 12 13  1  0
 13 14  2  0
 14 15  1  0
 15 16  2  0
 16 17  1  0
 17 18  2  0
  9 19  2  0
 19 20  1  0
 20 21  2  0
 21 22  1  0
 22 23  1  0
 23 24  1  0
 24 25  1  0
 25 26  1  0
 21  8  1  0
 26 22  1  0
 18 10  1  0
 18 13  1  0
  1 27  1  0
  1 28  1  0
  1 29  1  0
  3 30  1  0
  3 31  1  0
  3 32  1  0
  4 33  1  0
  4 34  1  0
  4 35  1  0
  6 36  1  0
  6 37  1  0
  7 38  1  0
  7 39  1  0
 11 40  1  0
 12 41  1  0
 14 42  1  0
 15 43  1  0
 16 44  1  0
 17 45  1  0
 23 46  1  0
 23 47  1  0
 24 48  1  0
 24 49  1  0
 25 50  1  0
 25 51  1  0
 26 52  1  0
 26 53  1  0
M  END
>  <Energy>  (77) 
69.275800589200898

>  <compound_id>  (77) 
4717

>  <target_id>  (77) 
1

>  <reference_id>  (77) 
93

>  <inspiration_ids>  (77) 
[93, 95]

>  <energy_score>  (77) 
-24.92382772427709

>  <distance_score>  (77) 
11.731893813456635

>  <path>  (77) 
/opt/xchem-fragalysis-2/maxwin/BulkDock/SCRATCH/511018/C4717-P93/C4717-P93.minimised.mol

>  <scratch_subdir>  (77) 
/opt/xchem-fragalysis-2/maxwin/BulkDock/SCRATCH/511018/C4717-P93

>  <fragmenstein_runtime>  (77) 
14.848609447479248

>  <fragmenstein_outcome>  (77) 
too moved

>  <fragmenstein_mode>  (77) 
expansion

>  <fragmenstein_error>  (77) 


$$$$
C4717-P95
     RDKit          3D

 53 56  0  0  0  0  0  0  0  0999 V2000
   -5.3355   -1.6138    3.9066 C   0  0  0  0  0  0  0  0  0  0  0  0
   -4.3891   -0.4162    3.9528 C   0  0  0  0  0  0  0  0  0  0  0  0
   -5.2005    0.8494    4.2619 C   0  0  0  0  0  0  0  0  0  0  0  0
   -3.7622   -0.2366    2.5582 C   0  0  0  0  0  0  0  0  0  0  0  0
   -3.2513   -0.5778    4.8200 O   0  0  0  0  0  0  0  0  0  0  0  0
   -3.3608   -0.9804    6.2483 C   0  0  0  0  0  0  0  0  0  0  0  0
   -2.2008   -0.4498    7.6687 C   0  0  0  0  0  0  0  0  0  0  0  0
   -1.2257   -1.2414    8.9022 N   0  0  0  0  0  0  0  0  0  0  0  0
    0.4853   -1.3303    9.8906 C   0  0  0  0  0  0  0  0  0  0  0  0
    2.4681   -1.9788   10.6382 C   0  0  0  0  0  0  0  0  0  0  0  0
    3.3328   -2.9006    9.8038 C   0  0  0  0  0  0  0  0  0  0  0  0
    4.3231   -3.8888   10.7552 N   0  0  0  0  0  0  0  0  0  0  0  0
    4.7993   -2.9721   11.7014 C   0  0  0  0  0  0  0  0  0  0  0  0
    6.0141   -1.9757   12.3659 C   0  0  0  0  0  0  0  0  0  0  0  0
    6.1290   -2.1071   13.8156 C   0  0  0  0  0  0  0  0  0  0  0  0
    4.9206   -2.7134   14.3726 C   0  0  0  0  0  0  0  0  0  0  0  0
    3.4777   -3.2666   13.3587 C   0  0  0  0  0  0  0  0  0  0  0  0
    3.4520   -2.9377   11.9780 C   0  0  0  0  0  0  0  0  0  0  0  0
   -0.0157   -1.2737   11.0985 N   0  0  0  0  0  0  0  0  0  0  0  0
   -1.2744   -1.3503   10.8537 N   0  0  0  0  0  0  0  0  0  0  0  0
   -2.1752   -1.8170    9.3458 C   0  0  0  0  0  0  0  0  0  0  0  0
   -3.4837   -2.0334    8.6546 N   0  0  0  0  0  0  0  0  0  0  0  0
   -3.7407   -3.2106    7.7302 C   0  0  0  0  0  0  0  0  0  0  0  0
   -5.2016   -2.9813    7.1741 C   0  0  0  0  0  0  0  0  0  0  0  0
   -5.8065   -1.7281    7.8359 C   0  0  0  0  0  0  0  0  0  0  0  0
   -4.6900   -1.0920    8.6733 C   0  0  0  0  0  0  0  0  0  0  0  0
   -6.0424   -1.5836    4.7398 H   0  0  0  0  0  0  0  0  0  0  0  0
   -4.7997   -2.5614    3.9563 H   0  0  0  0  0  0  0  0  0  0  0  0
   -5.9440   -1.6109    2.9949 H   0  0  0  0  0  0  0  0  0  0  0  0
   -6.0188    0.9811    3.5446 H   0  0  0  0  0  0  0  0  0  0  0  0
   -4.5739    1.7460    4.2149 H   0  0  0  0  0  0  0  0  0  0  0  0
   -5.6435    0.8104    5.2619 H   0  0  0  0  0  0  0  0  0  0  0  0
   -4.5203   -0.0886    1.7818 H   0  0  0  0  0  0  0  0  0  0  0  0
   -3.0840    0.6249    2.5441 H   0  0  0  0  0  0  0  0  0  0  0  0
   -3.1556   -1.1071    2.2883 H   0  0  0  0  0  0  0  0  0  0  0  0
   -3.3053   -2.0104    6.0653 H   0  0  0  0  0  0  0  0  0  0  0  0
   -4.3463   -0.6263    6.4633 H   0  0  0  0  0  0  0  0  0  0  0  0
   -2.0119    0.5872    7.6721 H   0  0  0  0  0  0  0  0  0  0  0  0
   -2.8793   -0.0484    8.4339 H   0  0  0  0  0  0  0  0  0  0  0  0
    3.2717   -3.3010    8.7864 H   0  0  0  0  0  0  0  0  0  0  0  0
    4.9024   -4.5429   10.2482 H   0  0  0  0  0  0  0  0  0  0  0  0
    6.8351   -1.6178   11.7423 H   0  0  0  0  0  0  0  0  0  0  0  0
    6.9960   -1.7926   14.3731 H   0  0  0  0  0  0  0  0  0  0  0  0
    4.8465   -3.0256   15.4085 H   0  0  0  0  0  0  0  0  0  0  0  0
    2.6480   -3.8333   13.7957 H   0  0  0  0  0  0  0  0  0  0  0  0
   -3.0157   -3.3960    6.9549 H   0  0  0  0  0  0  0  0  0  0  0  0
   -3.6056   -4.1721    8.2365 H   0  0  0  0  0  0  0  0  0  0  0  0
   -5.1694   -2.9000    6.0932 H   0  0  0  0  0  0  0  0  0  0  0  0
   -5.8877   -3.8140    7.3180 H   0  0  0  0  0  0  0  0  0  0  0  0
   -6.7023   -1.9160    8.4290 H   0  0  0  0  0  0  0  0  0  0  0  0
   -6.1872   -1.0391    7.0723 H   0  0  0  0  0  0  0  0  0  0  0  0
   -4.9113   -0.6956    9.6469 H   0  0  0  0  0  0  0  0  0  0  0  0
   -4.5764   -0.1054    8.2140 H   0  0  0  0  0  0  0  0  0  0  0  0
  1  2  1  0
  2  3  1  0
  2  4  1  0
  2  5  1  0
  5  6  1  0
  6  7  1  0
  7  8  1  0
  8  9  1  0
  9 10  1  0
 10 11  2  0
 11 12  1  0
 12 13  1  0
 13 14  2  0
 14 15  1  0
 15 16  2  0
 16 17  1  0
 17 18  2  0
  9 19  2  0
 19 20  1  0
 20 21  2  0
 21 22  1  0
 22 23  1  0
 23 24  1  0
 24 25  1  0
 25 26  1  0
 21  8  1  0
 26 22  1  0
 18 10  1  0
 18 13  1  0
  1 27  1  0
  1 28  1  0
  1 29  1  0
  3 30  1  0
  3 31  1  0
  3 32  1  0
  4 33  1  0
  4 34  1  0
  4 35  1  0
  6 36  1  0
  6 37  1  0
  7 38  1  0
  7 39  1  0
 11 40  1  0
 12 41  1  0
 14 42  1  0
 15 43  1  0
 16 44  1  0
 17 45  1  0
 23 46  1  0
 23 47  1  0
 24 48  1  0
 24 49  1  0
 25 50  1  0
 25 51  1  0
 26 52  1  0
 26 53  1  0
M  END
>  <Energy>  (78) 
1100.9629975352771

>  <compound_id>  (78) 
4717

>  <target_id>  (78) 
1

>  <reference_id>  (78) 
95

>  <inspiration_ids>  (78) 
[93, 95]

>  <energy_score>  (78) 
1006.7633692217994

>  <distance_score>  (78) 
8.672717703840807

>  <path>  (78) 
/opt/xchem-fragalysis-2/maxwin/BulkDock/SCRATCH/511018/C4717-P95/C4717-P95.minimised.mol

>  <scratch_subdir>  (78) 
/opt/xchem-fragalysis-2/maxwin/BulkDock/SCRATCH/511018/C4717-P95

>  <fragmenstein_runtime>  (78) 
9.111165761947632

>  <fragmenstein_outcome>  (78) 
too moved

>  <fragmenstein_mode>  (78) 
expansion

>  <fragmenstein_error>  (78) 


$$$$
C4718-P93
     RDKit          3D

 53 56  0  0  0  0  0  0  0  0999 V2000
   -7.5874    2.6231    7.2910 C   0  0  0  0  0  0  0  0  0  0  0  0
   -7.3540    1.3021    7.9982 C   0  0  0  0  0  0  0  0  0  0  0  0
   -6.0780    1.0332    8.5910 O   0  0  0  0  0  0  0  0  0  0  0  0
   -4.7095    1.1346    7.9567 C   0  0  0  0  0  0  0  0  0  0  0  0
   -4.5546    2.8208    7.7972 C   0  0  0  0  0  0  0  0  0  0  0  0
   -5.0266    0.6373    6.4861 C   0  0  0  0  0  0  0  0  0  0  0  0
   -3.1504    0.4399    9.0756 C   0  0  0  0  0  0  0  0  0  0  0  0
   -1.6787   -0.6947    9.2901 N   0  0  0  0  0  0  0  0  0  0  0  0
    0.1084   -1.1385   10.0578 C   0  0  0  0  0  0  0  0  0  0  0  0
    1.9150   -1.0194   11.1929 C   0  0  0  0  0  0  0  0  0  0  0  0
    2.7649    0.2866   11.6815 C   0  0  0  0  0  0  0  0  0  0  0  0
    3.9034    0.4410   10.9445 N   0  0  0  0  0  0  0  0  0  0  0  0
    4.6547   -0.7318   11.3502 C   0  0  0  0  0  0  0  0  0  0  0  0
    6.2286   -0.9567   11.8791 C   0  0  0  0  0  0  0  0  0  0  0  0
    6.5797   -1.8935   12.7365 C   0  0  0  0  0  0  0  0  0  0  0  0
    5.5609   -2.8727   12.8113 C   0  0  0  0  0  0  0  0  0  0  0  0
    4.0630   -3.2473   12.1206 C   0  0  0  0  0  0  0  0  0  0  0  0
    3.5027   -2.1309   11.3885 C   0  0  0  0  0  0  0  0  0  0  0  0
    0.3692   -2.2332    8.8928 N   0  0  0  0  0  0  0  0  0  0  0  0
   -1.2081   -1.8193    7.8211 N   0  0  0  0  0  0  0  0  0  0  0  0
   -2.3471   -1.6497    8.3857 C   0  0  0  0  0  0  0  0  0  0  0  0
   -3.7016   -1.7681    7.8509 N   0  0  0  0  0  0  0  0  0  0  0  0
   -4.9251   -1.4150    8.5237 C   0  0  0  0  0  0  0  0  0  0  0  0
   -6.1656   -1.8917    7.7827 C   0  0  0  0  0  0  0  0  0  0  0  0
   -5.7118   -3.1166    7.0847 C   0  0  0  0  0  0  0  0  0  0  0  0
   -4.1814   -3.0057    7.1635 C   0  0  0  0  0  0  0  0  0  0  0  0
   -7.4701    3.4669    7.9762 H   0  0  0  0  0  0  0  0  0  0  0  0
   -6.9102    2.7633    6.4456 H   0  0  0  0  0  0  0  0  0  0  0  0
   -8.6109    2.6611    6.9032 H   0  0  0  0  0  0  0  0  0  0  0  0
   -8.0686    1.2504    8.8284 H   0  0  0  0  0  0  0  0  0  0  0  0
   -7.6631    0.4805    7.3496 H   0  0  0  0  0  0  0  0  0  0  0  0
   -3.6528    3.1806    8.3086 H   0  0  0  0  0  0  0  0  0  0  0  0
   -4.4931    3.1435    6.7515 H   0  0  0  0  0  0  0  0  0  0  0  0
   -5.3893    3.3848    8.2157 H   0  0  0  0  0  0  0  0  0  0  0  0
   -6.0399    0.3484    6.2465 H   0  0  0  0  0  0  0  0  0  0  0  0
   -4.8531    1.3876    5.7017 H   0  0  0  0  0  0  0  0  0  0  0  0
   -4.3713   -0.1847    6.3026 H   0  0  0  0  0  0  0  0  0  0  0  0
   -2.5335    1.2974    9.1187 H   0  0  0  0  0  0  0  0  0  0  0  0
   -3.7006    0.0895    9.9210 H   0  0  0  0  0  0  0  0  0  0  0  0
    2.4952    1.1221   12.3333 H   0  0  0  0  0  0  0  0  0  0  0  0
    4.3917    1.3034   10.8346 H   0  0  0  0  0  0  0  0  0  0  0  0
    7.0487   -0.3779   11.4791 H   0  0  0  0  0  0  0  0  0  0  0  0
    7.4699   -1.9020   13.3367 H   0  0  0  0  0  0  0  0  0  0  0  0
    5.7184   -3.0954   13.9120 H   0  0  0  0  0  0  0  0  0  0  0  0
    3.3813   -3.9660   12.5674 H   0  0  0  0  0  0  0  0  0  0  0  0
   -5.1581   -0.5192    9.0061 H   0  0  0  0  0  0  0  0  0  0  0  0
   -4.6705   -1.7905    9.4553 H   0  0  0  0  0  0  0  0  0  0  0  0
   -6.5203   -1.2317    7.0078 H   0  0  0  0  0  0  0  0  0  0  0  0
   -7.0402   -2.0140    8.4260 H   0  0  0  0  0  0  0  0  0  0  0  0
   -6.0730   -3.1247    6.0483 H   0  0  0  0  0  0  0  0  0  0  0  0
   -6.1355   -4.0290    7.4892 H   0  0  0  0  0  0  0  0  0  0  0  0
   -3.6781   -3.9195    7.4737 H   0  0  0  0  0  0  0  0  0  0  0  0
   -4.1012   -2.8094    6.1383 H   0  0  0  0  0  0  0  0  0  0  0  0
  1  2  1  0
  2  3  1  0
  3  4  1  0
  4  5  1  0
  4  6  1  0
  4  7  1  0
  7  8  1  0
  8  9  1  0
  9 10  1  0
 10 11  2  0
 11 12  1  0
 12 13  1  0
 13 14  2  0
 14 15  1  0
 15 16  2  0
 16 17  1  0
 17 18  2  0
  9 19  2  0
 19 20  1  0
 20 21  2  0
 21 22  1  0
 22 23  1  0
 23 24  1  0
 24 25  1  0
 25 26  1  0
 21  8  1  0
 26 22  1  0
 18 10  1  0
 18 13  1  0
  1 27  1  0
  1 28  1  0
  1 29  1  0
  2 30  1  0
  2 31  1  0
  5 32  1  0
  5 33  1  0
  5 34  1  0
  6 35  1  0
  6 36  1  0
  6 37  1  0
  7 38  1  0
  7 39  1  0
 11 40  1  0
 12 41  1  0
 14 42  1  0
 15 43  1  0
 16 44  1  0
 17 45  1  0
 23 46  1  0
 23 47  1  0
 24 48  1  0
 24 49  1  0
 25 50  1  0
 25 51  1  0
 26 52  1  0
 26 53  1  0
M  END
>  <Energy>  (79) 
1031.7971856273459

>  <compound_id>  (79) 
4718

>  <target_id>  (79) 
1

>  <reference_id>  (79) 
93

>  <inspiration_ids>  (79) 
[93, 95]

>  <energy_score>  (79) 
923.3018601044992

>  <distance_score>  (79) 
8.544109617106034

>  <path>  (79) 
/opt/xchem-fragalysis-2/maxwin/BulkDock/SCRATCH/511018/C4718-P93/C4718-P93.minimised.mol

>  <scratch_subdir>  (79) 
/opt/xchem-fragalysis-2/maxwin/BulkDock/SCRATCH/511018/C4718-P93

>  <fragmenstein_runtime>  (79) 
10.180716276168823

>  <fragmenstein_outcome>  (79) 
too moved

>  <fragmenstein_mode>  (79) 
expansion

>  <fragmenstein_error>  (79) 


$$$$
C4718-P95
     RDKit          3D

 53 56  0  0  0  0  0  0  0  0999 V2000
   -8.2176   -0.9041    8.1451 C   0  0  0  0  0  0  0  0  0  0  0  0
   -7.4480    0.3069    8.6476 C   0  0  0  0  0  0  0  0  0  0  0  0
   -6.0357    0.0683    8.7583 O   0  0  0  0  0  0  0  0  0  0  0  0
   -5.0664    0.7869    7.9146 C   0  0  0  0  0  0  0  0  0  0  0  0
   -5.5955    2.3552    7.8645 C   0  0  0  0  0  0  0  0  0  0  0  0
   -5.5709    0.5010    6.2756 C   0  0  0  0  0  0  0  0  0  0  0  0
   -3.2528    0.4552    8.6881 C   0  0  0  0  0  0  0  0  0  0  0  0
   -1.7700   -0.6763    8.8002 N   0  0  0  0  0  0  0  0  0  0  0  0
   -0.0726   -1.0592    9.7943 C   0  0  0  0  0  0  0  0  0  0  0  0
    1.7016   -1.2700   11.0122 C   0  0  0  0  0  0  0  0  0  0  0  0
    2.2244    0.0827   11.7809 C   0  0  0  0  0  0  0  0  0  0  0  0
    3.2880    0.7446   11.0800 N   0  0  0  0  0  0  0  0  0  0  0  0
    4.3055   -0.3596   11.0357 C   0  0  0  0  0  0  0  0  0  0  0  0
    5.9116   -0.6852   11.9141 C   0  0  0  0  0  0  0  0  0  0  0  0
    6.5590   -1.3683   12.8554 C   0  0  0  0  0  0  0  0  0  0  0  0
    5.7885   -2.4510   12.8972 C   0  0  0  0  0  0  0  0  0  0  0  0
    4.3902   -2.9176   11.8575 C   0  0  0  0  0  0  0  0  0  0  0  0
    3.4026   -1.8802   10.9274 C   0  0  0  0  0  0  0  0  0  0  0  0
   -1.0585   -1.2903   10.7527 N   0  0  0  0  0  0  0  0  0  0  0  0
   -2.2182   -2.0046    9.3409 N   0  0  0  0  0  0  0  0  0  0  0  0
   -2.2425   -1.7605    8.1005 C   0  0  0  0  0  0  0  0  0  0  0  0
   -3.2421   -2.1494    7.2486 N   0  0  0  0  0  0  0  0  0  0  0  0
   -4.5866   -1.7965    7.6102 C   0  0  0  0  0  0  0  0  0  0  0  0
   -5.6079   -2.5477    6.7734 C   0  0  0  0  0  0  0  0  0  0  0  0
   -4.6871   -3.1488    5.7758 C   0  0  0  0  0  0  0  0  0  0  0  0
   -3.5414   -3.4906    6.7584 C   0  0  0  0  0  0  0  0  0  0  0  0
   -8.2583   -0.9223    7.0532 H   0  0  0  0  0  0  0  0  0  0  0  0
   -7.7640   -1.8414    8.4659 H   0  0  0  0  0  0  0  0  0  0  0  0
   -9.2552   -0.8659    8.4922 H   0  0  0  0  0  0  0  0  0  0  0  0
   -7.7119    1.1591    8.0184 H   0  0  0  0  0  0  0  0  0  0  0  0
   -7.7924    0.5333    9.6620 H   0  0  0  0  0  0  0  0  0  0  0  0
   -6.3822    2.5771    8.5834 H   0  0  0  0  0  0  0  0  0  0  0  0
   -6.1288    2.6172    6.9423 H   0  0  0  0  0  0  0  0  0  0  0  0
   -4.7899    3.1022    7.9043 H   0  0  0  0  0  0  0  0  0  0  0  0
   -5.5681    1.4033    5.6481 H   0  0  0  0  0  0  0  0  0  0  0  0
   -4.9598   -0.1724    5.6635 H   0  0  0  0  0  0  0  0  0  0  0  0
   -6.6010    0.1524    6.2493 H   0  0  0  0  0  0  0  0  0  0  0  0
   -3.6260    0.1560    9.6472 H   0  0  0  0  0  0  0  0  0  0  0  0
   -2.7407    1.3969    8.5811 H   0  0  0  0  0  0  0  0  0  0  0  0
    1.7555    0.6523   12.5752 H   0  0  0  0  0  0  0  0  0  0  0  0
    3.6027    1.6642   11.3416 H   0  0  0  0  0  0  0  0  0  0  0  0
    6.7458   -0.5288   11.1494 H   0  0  0  0  0  0  0  0  0  0  0  0
    7.4742   -1.1674   13.3642 H   0  0  0  0  0  0  0  0  0  0  0  0
    5.9555   -2.8528   13.9133 H   0  0  0  0  0  0  0  0  0  0  0  0
    3.7898   -3.7733   12.1770 H   0  0  0  0  0  0  0  0  0  0  0  0
   -4.7937   -1.7169    8.6648 H   0  0  0  0  0  0  0  0  0  0  0  0
   -4.4701   -0.8725    7.1778 H   0  0  0  0  0  0  0  0  0  0  0  0
   -6.1165   -3.3355    7.3291 H   0  0  0  0  0  0  0  0  0  0  0  0
   -6.3791   -1.9433    6.3043 H   0  0  0  0  0  0  0  0  0  0  0  0
   -4.3444   -2.4116    5.0362 H   0  0  0  0  0  0  0  0  0  0  0  0
   -5.2192   -3.9016    5.2038 H   0  0  0  0  0  0  0  0  0  0  0  0
   -3.8148   -4.0934    7.6145 H   0  0  0  0  0  0  0  0  0  0  0  0
   -2.8287   -4.1170    6.2737 H   0  0  0  0  0  0  0  0  0  0  0  0
  1  2  1  0
  2  3  1  0
  3  4  1  0
  4  5  1  0
  4  6  1  0
  4  7  1  0
  7  8  1  0
  8  9  1  0
  9 10  1  0
 10 11  2  0
 11 12  1  0
 12 13  1  0
 13 14  2  0
 14 15  1  0
 15 16  2  0
 16 17  1  0
 17 18  2  0
  9 19  2  0
 19 20  1  0
 20 21  2  0
 21 22  1  0
 22 23  1  0
 23 24  1  0
 24 25  1  0
 25 26  1  0
 21  8  1  0
 26 22  1  0
 18 10  1  0
 18 13  1  0
  1 27  1  0
  1 28  1  0
  1 29  1  0
  2 30  1  0
  2 31  1  0
  5 32  1  0
  5 33  1  0
  5 34  1  0
  6 35  1  0
  6 36  1  0
  6 37  1  0
  7 38  1  0
  7 39  1  0
 11 40  1  0
 12 41  1  0
 14 42  1  0
 15 43  1  0
 16 44  1  0
 17 45  1  0
 23 46  1  0
 23 47  1  0
 24 48  1  0
 24 49  1  0
 25 50  1  0
 25 51  1  0
 26 52  1  0
 26 53  1  0
M  END
>  <Energy>  (80) 
1157.2159414021708

>  <compound_id>  (80) 
4718

>  <target_id>  (80) 
1

>  <reference_id>  (80) 
95

>  <inspiration_ids>  (80) 
[93, 95]

>  <energy_score>  (80) 
1048.7206158793267

>  <distance_score>  (80) 
8.61960740896575

>  <path>  (80) 
/opt/xchem-fragalysis-2/maxwin/BulkDock/SCRATCH/511018/C4718-P95/C4718-P95.minimised.mol

>  <scratch_subdir>  (80) 
/opt/xchem-fragalysis-2/maxwin/BulkDock/SCRATCH/511018/C4718-P95

>  <fragmenstein_runtime>  (80) 
11.210368871688843

>  <fragmenstein_outcome>  (80) 
too moved

>  <fragmenstein_mode>  (80) 
expansion

>  <fragmenstein_error>  (80) 


$$$$
C4720-P93
     RDKit          3D

 55 58  0  0  0  0  0  0  0  0999 V2000
   -6.6079   -4.4326    4.5589 C   0  0  0  0  0  0  0  0  0  0  0  0
   -7.2746   -3.0886    4.4767 C   0  0  0  0  0  0  0  0  0  0  0  0
   -8.7600   -3.2702    4.0847 C   0  0  0  0  0  0  0  0  0  0  0  0
   -7.0274   -2.1615    5.7506 C   0  0  0  0  0  0  0  0  0  0  0  0
   -8.1299   -2.5758    6.7675 C   0  0  0  0  0  0  0  0  0  0  0  0
   -7.2859   -0.7496    5.1668 C   0  0  0  0  0  0  0  0  0  0  0  0
   -5.5649   -2.3095    6.6008 C   0  0  0  0  0  0  0  0  0  0  0  0
   -4.7710   -1.1705    7.1681 N   0  0  0  0  0  0  0  0  0  0  0  0
   -3.4163   -1.1107    7.7438 C   0  0  0  0  0  0  0  0  0  0  0  0
   -1.6960   -1.3903    7.5388 C   0  0  0  0  0  0  0  0  0  0  0  0
   -0.4784   -1.4930    6.5588 C   0  0  0  0  0  0  0  0  0  0  0  0
    1.0679   -1.8381    7.0801 N   0  0  0  0  0  0  0  0  0  0  0  0
    0.9667   -2.3820    8.3775 C   0  0  0  0  0  0  0  0  0  0  0  0
    2.1367   -3.5175    8.7654 C   0  0  0  0  0  0  0  0  0  0  0  0
    2.6367   -3.0430   10.1032 C   0  0  0  0  0  0  0  0  0  0  0  0
    1.6678   -1.6923   10.4569 C   0  0  0  0  0  0  0  0  0  0  0  0
    0.3418   -1.3091    9.9843 C   0  0  0  0  0  0  0  0  0  0  0  0
   -0.9102   -1.7945    8.5834 C   0  0  0  0  0  0  0  0  0  0  0  0
   -3.5299   -0.3423    8.8095 N   0  0  0  0  0  0  0  0  0  0  0  0
   -4.7386    0.1979    8.8763 N   0  0  0  0  0  0  0  0  0  0  0  0
   -5.4731   -0.2018    7.8921 C   0  0  0  0  0  0  0  0  0  0  0  0
   -6.7307    0.2407    7.6349 N   0  0  0  0  0  0  0  0  0  0  0  0
   -7.7042    0.1619    8.7313 C   0  0  0  0  0  0  0  0  0  0  0  0
   -8.8899    0.9557    8.2146 C   0  0  0  0  0  0  0  0  0  0  0  0
   -8.2617    2.0531    7.3680 C   0  0  0  0  0  0  0  0  0  0  0  0
   -6.7944    1.6525    7.1940 C   0  0  0  0  0  0  0  0  0  0  0  0
   -5.5354   -4.3308    4.6178 H   0  0  0  0  0  0  0  0  0  0  0  0
   -6.9451   -4.9961    5.4306 H   0  0  0  0  0  0  0  0  0  0  0  0
   -6.7524   -4.9886    3.6301 H   0  0  0  0  0  0  0  0  0  0  0  0
   -6.8474   -2.6005    3.5925 H   0  0  0  0  0  0  0  0  0  0  0  0
   -9.2998   -3.9145    4.7853 H   0  0  0  0  0  0  0  0  0  0  0  0
   -9.2866   -2.3128    4.0274 H   0  0  0  0  0  0  0  0  0  0  0  0
   -8.8340   -3.7351    3.0948 H   0  0  0  0  0  0  0  0  0  0  0  0
   -8.2481   -3.6647    6.8090 H   0  0  0  0  0  0  0  0  0  0  0  0
   -9.1045   -2.1355    6.5336 H   0  0  0  0  0  0  0  0  0  0  0  0
   -7.8752   -2.3031    7.7839 H   0  0  0  0  0  0  0  0  0  0  0  0
   -8.0904   -0.2313    5.6886 H   0  0  0  0  0  0  0  0  0  0  0  0
   -7.6237   -0.7535    4.1236 H   0  0  0  0  0  0  0  0  0  0  0  0
   -6.3767   -0.1496    5.1449 H   0  0  0  0  0  0  0  0  0  0  0  0
   -5.8121   -2.8885    7.4895 H   0  0  0  0  0  0  0  0  0  0  0  0
   -4.8575   -2.9774    6.1204 H   0  0  0  0  0  0  0  0  0  0  0  0
   -0.4086   -1.1129    5.5266 H   0  0  0  0  0  0  0  0  0  0  0  0
    1.8988   -1.9053    6.5086 H   0  0  0  0  0  0  0  0  0  0  0  0
    1.8533   -4.5509    8.5842 H   0  0  0  0  0  0  0  0  0  0  0  0
    3.2342   -3.5327   10.8537 H   0  0  0  0  0  0  0  0  0  0  0  0
    1.9544   -1.0668   11.3268 H   0  0  0  0  0  0  0  0  0  0  0  0
   -0.1624   -1.0200   10.8668 H   0  0  0  0  0  0  0  0  0  0  0  0
   -7.3251    0.6077    9.6471 H   0  0  0  0  0  0  0  0  0  0  0  0
   -8.0021   -0.8489    8.9805 H   0  0  0  0  0  0  0  0  0  0  0  0
   -9.5292    0.3229    7.5882 H   0  0  0  0  0  0  0  0  0  0  0  0
   -9.5083    1.3527    9.0252 H   0  0  0  0  0  0  0  0  0  0  0  0
   -8.3364    3.0306    7.8564 H   0  0  0  0  0  0  0  0  0  0  0  0
   -8.7700    2.1333    6.4010 H   0  0  0  0  0  0  0  0  0  0  0  0
   -6.1667    2.3026    7.8128 H   0  0  0  0  0  0  0  0  0  0  0  0
   -6.4690    1.7805    6.1570 H   0  0  0  0  0  0  0  0  0  0  0  0
  1  2  1  0
  2  3  1  0
  2  4  1  0
  4  5  1  0
  4  6  1  0
  4  7  1  0
  7  8  1  0
  8  9  1  0
  9 10  1  0
 10 11  2  0
 11 12  1  0
 12 13  1  0
 13 14  2  0
 14 15  1  0
 15 16  2  0
 16 17  1  0
 17 18  2  0
  9 19  2  0
 19 20  1  0
 20 21  2  0
 21 22  1  0
 22 23  1  0
 23 24  1  0
 24 25  1  0
 25 26  1  0
 21  8  1  0
 26 22  1  0
 18 10  1  0
 18 13  1  0
  1 27  1  0
  1 28  1  0
  1 29  1  0
  2 30  1  0
  3 31  1  0
  3 32  1  0
  3 33  1  0
  5 34  1  0
  5 35  1  0
  5 36  1  0
  6 37  1  0
  6 38  1  0
  6 39  1  0
  7 40  1  0
  7 41  1  0
 11 42  1  0
 12 43  1  0
 14 44  1  0
 15 45  1  0
 16 46  1  0
 17 47  1  0
 23 48  1  0
 23 49  1  0
 24 50  1  0
 24 51  1  0
 25 52  1  0
 25 53  1  0
 26 54  1  0
 26 55  1  0
M  END
>  <Energy>  (81) 
661.51582551952401

>  <compound_id>  (81) 
4720

>  <target_id>  (81) 
1

>  <reference_id>  (81) 
93

>  <inspiration_ids>  (81) 
[93, 95]

>  <energy_score>  (81) 
551.5322394479601

>  <distance_score>  (81) 
10.748629811960019

>  <path>  (81) 
/opt/xchem-fragalysis-2/maxwin/BulkDock/SCRATCH/511018/C4720-P93/C4720-P93.minimised.mol

>  <scratch_subdir>  (81) 
/opt/xchem-fragalysis-2/maxwin/BulkDock/SCRATCH/511018/C4720-P93

>  <fragmenstein_runtime>  (81) 
11.611093759536743

>  <fragmenstein_outcome>  (81) 
too moved

>  <fragmenstein_mode>  (81) 
expansion

>  <fragmenstein_error>  (81) 


$$$$
C4720-P95
     RDKit          3D

 55 58  0  0  0  0  0  0  0  0999 V2000
   -4.7991   -0.9121    4.6238 C   0  0  0  0  0  0  0  0  0  0  0  0
   -3.4015   -1.5993    5.0082 C   0  0  0  0  0  0  0  0  0  0  0  0
   -2.5332   -0.9843    3.8918 C   0  0  0  0  0  0  0  0  0  0  0  0
   -2.9798   -2.0996    6.7615 C   0  0  0  0  0  0  0  0  0  0  0  0
   -3.3752   -3.6857    6.8288 C   0  0  0  0  0  0  0  0  0  0  0  0
   -4.4282   -1.8070    7.1000 C   0  0  0  0  0  0  0  0  0  0  0  0
   -1.7251   -1.7831    8.3209 C   0  0  0  0  0  0  0  0  0  0  0  0
    0.2158   -1.9190    9.1038 N   0  0  0  0  0  0  0  0  0  0  0  0
    1.5163   -1.6128   10.5512 C   0  0  0  0  0  0  0  0  0  0  0  0
    3.4952   -2.4846   11.3552 C   0  0  0  0  0  0  0  0  0  0  0  0
    3.4715   -3.2715   12.8450 C   0  0  0  0  0  0  0  0  0  0  0  0
    4.6436   -2.7868   14.1713 N   0  0  0  0  0  0  0  0  0  0  0  0
    5.8828   -2.4624   13.5840 C   0  0  0  0  0  0  0  0  0  0  0  0
    7.0593   -2.0600   14.2897 C   0  0  0  0  0  0  0  0  0  0  0  0
    7.6139   -0.8603   14.0434 C   0  0  0  0  0  0  0  0  0  0  0  0
    7.3146   -0.3900   12.8210 C   0  0  0  0  0  0  0  0  0  0  0  0
    6.5147   -1.1477   11.8801 C   0  0  0  0  0  0  0  0  0  0  0  0
    5.3990   -2.3216   12.0080 C   0  0  0  0  0  0  0  0  0  0  0  0
    0.5309   -1.3221   11.4485 N   0  0  0  0  0  0  0  0  0  0  0  0
   -0.8849   -1.1516   11.0526 N   0  0  0  0  0  0  0  0  0  0  0  0
   -1.4599   -1.1296    9.4503 C   0  0  0  0  0  0  0  0  0  0  0  0
   -2.9565   -0.3159    8.8659 N   0  0  0  0  0  0  0  0  0  0  0  0
   -4.3394   -0.6360    9.4971 C   0  0  0  0  0  0  0  0  0  0  0  0
   -5.6149   -0.1080    8.8355 C   0  0  0  0  0  0  0  0  0  0  0  0
   -5.0350    1.0107    8.0719 C   0  0  0  0  0  0  0  0  0  0  0  0
   -3.3904    1.0204    8.5349 C   0  0  0  0  0  0  0  0  0  0  0  0
   -5.6841   -1.5156    4.8398 H   0  0  0  0  0  0  0  0  0  0  0  0
   -4.9067    0.0832    5.0512 H   0  0  0  0  0  0  0  0  0  0  0  0
   -4.8821   -0.7716    3.5368 H   0  0  0  0  0  0  0  0  0  0  0  0
   -3.6169   -2.6016    4.6158 H   0  0  0  0  0  0  0  0  0  0  0  0
   -2.9286   -1.2602    2.9063 H   0  0  0  0  0  0  0  0  0  0  0  0
   -2.6849    0.0962    3.8259 H   0  0  0  0  0  0  0  0  0  0  0  0
   -1.4769   -1.2535    3.9084 H   0  0  0  0  0  0  0  0  0  0  0  0
   -4.3546   -3.8252    6.3782 H   0  0  0  0  0  0  0  0  0  0  0  0
   -2.7753   -4.4085    6.3111 H   0  0  0  0  0  0  0  0  0  0  0  0
   -3.4676   -4.0518    7.8493 H   0  0  0  0  0  0  0  0  0  0  0  0
   -5.2022   -2.2172    6.4450 H   0  0  0  0  0  0  0  0  0  0  0  0
   -4.5238   -0.7681    6.9798 H   0  0  0  0  0  0  0  0  0  0  0  0
   -4.8104   -2.2818    7.9677 H   0  0  0  0  0  0  0  0  0  0  0  0
   -2.5880   -2.3062    9.0445 H   0  0  0  0  0  0  0  0  0  0  0  0
   -2.0669   -2.7962    8.3227 H   0  0  0  0  0  0  0  0  0  0  0  0
    2.6488   -3.7487   13.3614 H   0  0  0  0  0  0  0  0  0  0  0  0
    4.6244   -3.2447   15.0785 H   0  0  0  0  0  0  0  0  0  0  0  0
    7.4107   -2.5689   15.1602 H   0  0  0  0  0  0  0  0  0  0  0  0
    8.3782   -0.4127   14.6629 H   0  0  0  0  0  0  0  0  0  0  0  0
    7.8405    0.4992   12.4865 H   0  0  0  0  0  0  0  0  0  0  0  0
    6.7398   -0.7356   10.8942 H   0  0  0  0  0  0  0  0  0  0  0  0
   -4.3860   -1.6800    9.4858 H   0  0  0  0  0  0  0  0  0  0  0  0
   -4.4124   -0.2484   10.5104 H   0  0  0  0  0  0  0  0  0  0  0  0
   -6.4124    0.1622    9.5324 H   0  0  0  0  0  0  0  0  0  0  0  0
   -6.1693   -0.8137    8.2115 H   0  0  0  0  0  0  0  0  0  0  0  0
   -5.5528    1.9610    8.2066 H   0  0  0  0  0  0  0  0  0  0  0  0
   -5.3044    0.8263    7.0279 H   0  0  0  0  0  0  0  0  0  0  0  0
   -2.6589    1.7198    8.1643 H   0  0  0  0  0  0  0  0  0  0  0  0
   -3.5650    1.5839    9.3755 H   0  0  0  0  0  0  0  0  0  0  0  0
  1  2  1  0
  2  3  1  0
  2  4  1  0
  4  5  1  0
  4  6  1  0
  4  7  1  0
  7  8  1  0
  8  9  1  0
  9 10  1  0
 10 11  2  0
 11 12  1  0
 12 13  1  0
 13 14  2  0
 14 15  1  0
 15 16  2  0
 16 17  1  0
 17 18  2  0
  9 19  2  0
 19 20  1  0
 20 21  2  0
 21 22  1  0
 22 23  1  0
 23 24  1  0
 24 25  1  0
 25 26  1  0
 21  8  1  0
 26 22  1  0
 18 10  1  0
 18 13  1  0
  1 27  1  0
  1 28  1  0
  1 29  1  0
  2 30  1  0
  3 31  1  0
  3 32  1  0
  3 33  1  0
  5 34  1  0
  5 35  1  0
  5 36  1  0
  6 37  1  0
  6 38  1  0
  6 39  1  0
  7 40  1  0
  7 41  1  0
 11 42  1  0
 12 43  1  0
 14 44  1  0
 15 45  1  0
 16 46  1  0
 17 47  1  0
 23 48  1  0
 23 49  1  0
 24 50  1  0
 24 51  1  0
 25 52  1  0
 25 53  1  0
 26 54  1  0
 26 55  1  0
M  END
>  <Energy>  (82) 
1709.5632687700727

>  <compound_id>  (82) 
4720

>  <target_id>  (82) 
1

>  <reference_id>  (82) 
95

>  <inspiration_ids>  (82) 
[93, 95]

>  <energy_score>  (82) 
1599.5796826985013

>  <distance_score>  (82) 
7.924287874325329

>  <path>  (82) 
/opt/xchem-fragalysis-2/maxwin/BulkDock/SCRATCH/511018/C4720-P95/C4720-P95.minimised.mol

>  <scratch_subdir>  (82) 
/opt/xchem-fragalysis-2/maxwin/BulkDock/SCRATCH/511018/C4720-P95

>  <fragmenstein_runtime>  (82) 
11.936065435409546

>  <fragmenstein_outcome>  (82) 
too moved

>  <fragmenstein_mode>  (82) 
expansion

>  <fragmenstein_error>  (82) 


$$$$
C4728-P93
     RDKit          3D

 43 45  0  0  0  0  0  0  0  0999 V2000
    3.7762    1.9257    9.9897 C   0  0  0  0  0  0  0  0  0  0  0  0
    3.5781    1.3319   11.2706 O   0  0  0  0  0  0  0  0  0  0  0  0
    3.7846   -0.0749   11.2840 C   0  0  0  0  0  0  0  0  0  0  0  0
    2.1516   -1.0225   11.2852 C   0  0  0  0  0  0  0  0  0  0  0  0
    0.5015   -1.0110   10.0891 C   0  0  0  0  0  0  0  0  0  0  0  0
   -1.4626   -0.8376    9.3875 N   0  0  0  0  0  0  0  0  0  0  0  0
   -2.3526    0.2890    8.9097 C   0  0  0  0  0  0  0  0  0  0  0  0
   -2.4953   -1.7698    8.3728 C   0  0  0  0  0  0  0  0  0  0  0  0
   -4.1583   -1.5167    8.0224 C   0  0  0  0  0  0  0  0  0  0  0  0
   -4.9225   -0.3238    7.4498 C   0  0  0  0  0  0  0  0  0  0  0  0
   -6.3388   -0.8627    7.2609 C   0  0  0  0  0  0  0  0  0  0  0  0
   -6.1230   -2.3096    6.8772 C   0  0  0  0  0  0  0  0  0  0  0  0
   -4.6959   -2.5522    7.1080 N   0  0  0  0  0  0  0  0  0  0  0  0
    3.0326   -2.6417   11.2967 C   0  0  0  0  0  0  0  0  0  0  0  0
    4.2878   -3.2926   12.0278 C   0  0  0  0  0  0  0  0  0  0  0  0
    5.6441   -2.4585   12.4715 C   0  0  0  0  0  0  0  0  0  0  0  0
    6.4667   -2.3172   13.6227 N   0  0  0  0  0  0  0  0  0  0  0  0
    7.2196   -1.2234   13.4564 C   0  0  0  0  0  0  0  0  0  0  0  0
    6.8765   -0.7314   12.2077 C   0  0  0  0  0  0  0  0  0  0  0  0
    5.4119   -0.8440   11.9340 C   0  0  0  0  0  0  0  0  0  0  0  0
    2.8467    1.8837    9.4151 H   0  0  0  0  0  0  0  0  0  0  0  0
    4.5891    1.4864    9.4071 H   0  0  0  0  0  0  0  0  0  0  0  0
    4.0080    2.9841   10.1459 H   0  0  0  0  0  0  0  0  0  0  0  0
    0.8642   -1.9019    9.5963 H   0  0  0  0  0  0  0  0  0  0  0  0
    0.0794   -0.9533   11.0468 H   0  0  0  0  0  0  0  0  0  0  0  0
   -2.4112    0.0972    7.8673 H   0  0  0  0  0  0  0  0  0  0  0  0
   -2.2047    1.3575    8.8205 H   0  0  0  0  0  0  0  0  0  0  0  0
   -3.3449    0.2142    9.3520 H   0  0  0  0  0  0  0  0  0  0  0  0
   -1.9504   -1.7377    7.4658 H   0  0  0  0  0  0  0  0  0  0  0  0
   -2.6570   -2.7506    8.7420 H   0  0  0  0  0  0  0  0  0  0  0  0
   -4.6072   -1.5825    9.0066 H   0  0  0  0  0  0  0  0  0  0  0  0
   -4.5618   -0.0216    6.4722 H   0  0  0  0  0  0  0  0  0  0  0  0
   -4.9640    0.5478    8.1032 H   0  0  0  0  0  0  0  0  0  0  0  0
   -6.8886   -0.3010    6.4998 H   0  0  0  0  0  0  0  0  0  0  0  0
   -6.8920   -0.7982    8.2056 H   0  0  0  0  0  0  0  0  0  0  0  0
   -6.3763   -2.4796    5.8285 H   0  0  0  0  0  0  0  0  0  0  0  0
   -6.7689   -2.9719    7.4554 H   0  0  0  0  0  0  0  0  0  0  0  0
   -4.5116   -3.5045    7.4080 H   0  0  0  0  0  0  0  0  0  0  0  0
    2.6814   -3.4021   10.6072 H   0  0  0  0  0  0  0  0  0  0  0  0
    4.4623   -4.3437   11.7523 H   0  0  0  0  0  0  0  0  0  0  0  0
    6.4380   -2.9184   14.4287 H   0  0  0  0  0  0  0  0  0  0  0  0
    8.0418   -0.9921   14.1189 H   0  0  0  0  0  0  0  0  0  0  0  0
    7.4841   -0.0116   11.7195 H   0  0  0  0  0  0  0  0  0  0  0  0
  1  2  1  0
  2  3  1  0
  3  4  2  0
  4  5  1  0
  5  6  1  0
  6  7  1  0
  6  8  1  0
  8  9  1  0
  9 10  1  0
 10 11  1  0
 11 12  1  0
 12 13  1  0
  4 14  1  0
 14 15  2  0
 15 16  1  0
 16 17  1  0
 17 18  1  0
 18 19  2  0
 19 20  1  0
 20  3  1  0
 13  9  1  0
 20 16  2  0
  1 21  1  0
  1 22  1  0
  1 23  1  0
  5 24  1  0
  5 25  1  0
  7 26  1  0
  7 27  1  0
  7 28  1  0
  8 29  1  0
  8 30  1  0
  9 31  1  0
 10 32  1  0
 10 33  1  0
 11 34  1  0
 11 35  1  0
 12 36  1  0
 12 37  1  0
 13 38  1  0
 14 39  1  0
 15 40  1  0
 17 41  1  0
 18 42  1  0
 19 43  1  0
M  END
>  <Energy>  (83) 
847.90996501059612

>  <compound_id>  (83) 
4728

>  <target_id>  (83) 
1

>  <reference_id>  (83) 
93

>  <inspiration_ids>  (83) 
[93, 95]

>  <energy_score>  (83) 
749.8847970084378

>  <distance_score>  (83) 
8.476930439639789

>  <path>  (83) 
/opt/xchem-fragalysis-2/maxwin/BulkDock/SCRATCH/511018/C4728-P93/C4728-P93.minimised.mol

>  <scratch_subdir>  (83) 
/opt/xchem-fragalysis-2/maxwin/BulkDock/SCRATCH/511018/C4728-P93

>  <fragmenstein_runtime>  (83) 
5.760756969451904

>  <fragmenstein_outcome>  (83) 
too moved

>  <fragmenstein_mode>  (83) 
expansion

>  <fragmenstein_error>  (83) 


$$$$
C4728-P95
     RDKit          3D

 43 45  0  0  0  0  0  0  0  0999 V2000
    3.8615    2.0769   10.0861 C   0  0  0  0  0  0  0  0  0  0  0  0
    3.4267    1.1462   11.0761 O   0  0  0  0  0  0  0  0  0  0  0  0
    3.9615   -0.2754   11.0429 C   0  0  0  0  0  0  0  0  0  0  0  0
    2.3475   -1.3188   10.8818 C   0  0  0  0  0  0  0  0  0  0  0  0
    0.6239   -1.2447    9.7011 C   0  0  0  0  0  0  0  0  0  0  0  0
   -1.4042   -1.2465    9.0786 N   0  0  0  0  0  0  0  0  0  0  0  0
   -2.7071   -0.1649    9.0470 C   0  0  0  0  0  0  0  0  0  0  0  0
   -2.1379   -1.5346    7.4994 C   0  0  0  0  0  0  0  0  0  0  0  0
   -3.6555   -1.8484    6.8551 C   0  0  0  0  0  0  0  0  0  0  0  0
   -4.9903   -1.2245    7.3218 C   0  0  0  0  0  0  0  0  0  0  0  0
   -6.0046   -1.8265    6.3792 C   0  0  0  0  0  0  0  0  0  0  0  0
   -5.4353   -3.1991    6.1053 C   0  0  0  0  0  0  0  0  0  0  0  0
   -4.0341   -3.2276    6.5902 N   0  0  0  0  0  0  0  0  0  0  0  0
    3.3999   -2.5530   11.2087 C   0  0  0  0  0  0  0  0  0  0  0  0
    4.8140   -3.0316   11.6947 C   0  0  0  0  0  0  0  0  0  0  0  0
    5.8448   -2.0341   12.2238 C   0  0  0  0  0  0  0  0  0  0  0  0
    6.4894   -1.9788   13.5448 N   0  0  0  0  0  0  0  0  0  0  0  0
    7.2800   -0.9026   13.5794 C   0  0  0  0  0  0  0  0  0  0  0  0
    7.0127   -0.4215   12.3178 C   0  0  0  0  0  0  0  0  0  0  0  0
    5.5999   -0.6685   11.9486 C   0  0  0  0  0  0  0  0  0  0  0  0
    4.2505    2.9681   10.5883 H   0  0  0  0  0  0  0  0  0  0  0  0
    2.9837    2.3958    9.5155 H   0  0  0  0  0  0  0  0  0  0  0  0
    4.5942    1.7071    9.3693 H   0  0  0  0  0  0  0  0  0  0  0  0
    1.1319   -0.3413    9.2576 H   0  0  0  0  0  0  0  0  0  0  0  0
    0.9972   -1.8512    8.8450 H   0  0  0  0  0  0  0  0  0  0  0  0
   -2.6201    0.7126    8.4138 H   0  0  0  0  0  0  0  0  0  0  0  0
   -3.5246   -0.8061    8.7862 H   0  0  0  0  0  0  0  0  0  0  0  0
   -3.3529    0.1549    9.8239 H   0  0  0  0  0  0  0  0  0  0  0  0
   -1.3774   -1.6622    6.7528 H   0  0  0  0  0  0  0  0  0  0  0  0
   -2.2318   -0.5092    7.2276 H   0  0  0  0  0  0  0  0  0  0  0  0
   -3.5321   -1.4222    5.8446 H   0  0  0  0  0  0  0  0  0  0  0  0
   -5.0211   -0.1360    7.2630 H   0  0  0  0  0  0  0  0  0  0  0  0
   -5.2653   -1.5172    8.3376 H   0  0  0  0  0  0  0  0  0  0  0  0
   -6.0533   -1.2419    5.4530 H   0  0  0  0  0  0  0  0  0  0  0  0
   -7.0064   -1.8620    6.8176 H   0  0  0  0  0  0  0  0  0  0  0  0
   -5.4646   -3.4131    5.0314 H   0  0  0  0  0  0  0  0  0  0  0  0
   -6.0433   -3.9546    6.6093 H   0  0  0  0  0  0  0  0  0  0  0  0
   -3.9611   -3.7591    7.4542 H   0  0  0  0  0  0  0  0  0  0  0  0
    2.9854   -3.0923   12.1854 H   0  0  0  0  0  0  0  0  0  0  0  0
    4.9632   -4.1055   11.6215 H   0  0  0  0  0  0  0  0  0  0  0  0
    6.4254   -2.7054   14.2381 H   0  0  0  0  0  0  0  0  0  0  0  0
    8.0992   -0.7827   14.2745 H   0  0  0  0  0  0  0  0  0  0  0  0
    7.7850    0.1060   11.7818 H   0  0  0  0  0  0  0  0  0  0  0  0
  1  2  1  0
  2  3  1  0
  3  4  2  0
  4  5  1  0
  5  6  1  0
  6  7  1  0
  6  8  1  0
  8  9  1  0
  9 10  1  0
 10 11  1  0
 11 12  1  0
 12 13  1  0
  4 14  1  0
 14 15  2  0
 15 16  1  0
 16 17  1  0
 17 18  1  0
 18 19  2  0
 19 20  1  0
 20  3  1  0
 13  9  1  0
 20 16  2  0
  1 21  1  0
  1 22  1  0
  1 23  1  0
  5 24  1  0
  5 25  1  0
  7 26  1  0
  7 27  1  0
  7 28  1  0
  8 29  1  0
  8 30  1  0
  9 31  1  0
 10 32  1  0
 10 33  1  0
 11 34  1  0
 11 35  1  0
 12 36  1  0
 12 37  1  0
 13 38  1  0
 14 39  1  0
 15 40  1  0
 17 41  1  0
 18 42  1  0
 19 43  1  0
M  END
>  <Energy>  (84) 
948.95755775577493

>  <compound_id>  (84) 
4728

>  <target_id>  (84) 
1

>  <reference_id>  (84) 
95

>  <inspiration_ids>  (84) 
[93, 95]

>  <energy_score>  (84) 
850.9323897536158

>  <distance_score>  (84) 
8.52524558156747

>  <path>  (84) 
/opt/xchem-fragalysis-2/maxwin/BulkDock/SCRATCH/511018/C4728-P95/C4728-P95.minimised.mol

>  <scratch_subdir>  (84) 
/opt/xchem-fragalysis-2/maxwin/BulkDock/SCRATCH/511018/C4728-P95

>  <fragmenstein_runtime>  (84) 
5.629539251327515

>  <fragmenstein_outcome>  (84) 
too moved

>  <fragmenstein_mode>  (84) 
expansion

>  <fragmenstein_error>  (84) 


$$$$
C4729-P93
     RDKit          3D

 44 46  0  0  0  0  0  0  0  0999 V2000
   -2.5971   -2.8226    8.3655 O   0  0  0  0  0  0  0  0  0  0  0  0
   -2.4361   -1.6670    8.6209 C   0  0  0  0  0  0  0  0  0  0  0  0
   -3.4669   -0.6525    8.1721 C   0  0  0  0  0  0  0  0  0  0  0  0
   -4.9936   -0.6005    8.2852 C   0  0  0  0  0  0  0  0  0  0  0  0
   -5.9794   -1.5269    7.5760 C   0  0  0  0  0  0  0  0  0  0  0  0
   -6.8910   -0.8616    6.5465 C   0  0  0  0  0  0  0  0  0  0  0  0
   -7.5283   -2.0500    5.8238 C   0  0  0  0  0  0  0  0  0  0  0  0
   -6.6770   -3.2528    6.2195 C   0  0  0  0  0  0  0  0  0  0  0  0
   -5.4779   -2.6485    6.8063 N   0  0  0  0  0  0  0  0  0  0  0  0
   -1.1569   -0.8733    9.3620 N   0  0  0  0  0  0  0  0  0  0  0  0
    0.7846   -1.5601   10.0214 C   0  0  0  0  0  0  0  0  0  0  0  0
    2.6726   -2.0826   11.0684 C   0  0  0  0  0  0  0  0  0  0  0  0
    4.4462   -0.8371   11.3270 C   0  0  0  0  0  0  0  0  0  0  0  0
    6.0338   -0.9553   12.2447 C   0  0  0  0  0  0  0  0  0  0  0  0
    7.5638   -0.0566   11.6654 C   0  0  0  0  0  0  0  0  0  0  0  0
    8.7696    1.1558   12.6613 C   0  0  0  0  0  0  0  0  0  0  0  0
    8.4130    3.1585   12.8158 C   0  0  0  0  0  0  0  0  0  0  0  0
    6.9925    3.6946   11.6686 C   0  0  0  0  0  0  0  0  0  0  0  0
    6.0859    2.5589   10.4141 C   0  0  0  0  0  0  0  0  0  0  0  0
    6.5574    0.6185   10.1407 C   0  0  0  0  0  0  0  0  0  0  0  0
    6.0591   -0.6121   10.6976 N   0  0  0  0  0  0  0  0  0  0  0  0
   -3.1841    0.2101    8.7621 H   0  0  0  0  0  0  0  0  0  0  0  0
   -3.2482   -0.5818    7.1116 H   0  0  0  0  0  0  0  0  0  0  0  0
   -5.2160   -0.6297    9.3471 H   0  0  0  0  0  0  0  0  0  0  0  0
   -5.2734    0.4235    7.9963 H   0  0  0  0  0  0  0  0  0  0  0  0
   -6.6647   -1.8790    8.3546 H   0  0  0  0  0  0  0  0  0  0  0  0
   -7.6483   -0.2228    7.0127 H   0  0  0  0  0  0  0  0  0  0  0  0
   -6.3198   -0.2482    5.8395 H   0  0  0  0  0  0  0  0  0  0  0  0
   -7.5201   -1.8846    4.7412 H   0  0  0  0  0  0  0  0  0  0  0  0
   -8.5675   -2.1926    6.1390 H   0  0  0  0  0  0  0  0  0  0  0  0
   -6.4436   -3.8910    5.3638 H   0  0  0  0  0  0  0  0  0  0  0  0
   -7.2012   -3.8663    6.9620 H   0  0  0  0  0  0  0  0  0  0  0  0
   -4.9430   -3.3150    7.3596 H   0  0  0  0  0  0  0  0  0  0  0  0
   -1.3183    0.0876    9.3297 H   0  0  0  0  0  0  0  0  0  0  0  0
    1.2415   -0.5935    9.8757 H   0  0  0  0  0  0  0  0  0  0  0  0
    1.0296   -2.1502    9.1106 H   0  0  0  0  0  0  0  0  0  0  0  0
    3.0104   -2.8569   10.3163 H   0  0  0  0  0  0  0  0  0  0  0  0
    2.9464   -2.9773   11.7453 H   0  0  0  0  0  0  0  0  0  0  0  0
    6.2874   -1.6579   13.0415 H   0  0  0  0  0  0  0  0  0  0  0  0
    9.3840    0.6504   13.4285 H   0  0  0  0  0  0  0  0  0  0  0  0
    8.9436    3.8152   13.5015 H   0  0  0  0  0  0  0  0  0  0  0  0
    6.6492    4.7316   11.7256 H   0  0  0  0  0  0  0  0  0  0  0  0
    5.2727    2.8968    9.7656 H   0  0  0  0  0  0  0  0  0  0  0  0
    6.7692   -1.3184   10.5481 H   0  0  0  0  0  0  0  0  0  0  0  0
  1  2  2  0
  2  3  1  0
  3  4  1  0
  4  5  1  0
  5  6  1  0
  6  7  1  0
  7  8  1  0
  8  9  1  0
  2 10  1  0
 10 11  1  0
 11 12  1  0
 12 13  1  0
 13 14  2  0
 14 15  1  0
 15 16  2  0
 16 17  1  0
 17 18  2  0
 18 19  1  0
 19 20  2  0
 20 21  1  0
  9  5  1  0
 21 13  1  0
 20 15  1  0
  3 22  1  0
  3 23  1  0
  4 24  1  0
  4 25  1  0
  5 26  1  0
  6 27  1  0
  6 28  1  0
  7 29  1  0
  7 30  1  0
  8 31  1  0
  8 32  1  0
  9 33  1  0
 10 34  1  0
 11 35  1  0
 11 36  1  0
 12 37  1  0
 12 38  1  0
 14 39  1  0
 16 40  1  0
 17 41  1  0
 18 42  1  0
 19 43  1  0
 21 44  1  0
M  END
>  <Energy>  (85) 
1457.2841606025195

>  <compound_id>  (85) 
4729

>  <target_id>  (85) 
1

>  <reference_id>  (85) 
93

>  <inspiration_ids>  (85) 
[93, 95]

>  <energy_score>  (85) 
1425.5181467822513

>  <distance_score>  (85) 
7.408392275830548

>  <path>  (85) 
/opt/xchem-fragalysis-2/maxwin/BulkDock/SCRATCH/511018/C4729-P93/C4729-P93.minimised.mol

>  <scratch_subdir>  (85) 
/opt/xchem-fragalysis-2/maxwin/BulkDock/SCRATCH/511018/C4729-P93

>  <fragmenstein_runtime>  (85) 
10.489952087402344

>  <fragmenstein_outcome>  (85) 
too moved

>  <fragmenstein_mode>  (85) 
expansion

>  <fragmenstein_error>  (85) 


$$$$
C4729-P95
     RDKit          3D

 44 46  0  0  0  0  0  0  0  0999 V2000
   -1.4226   -1.7855    8.1037 O   0  0  0  0  0  0  0  0  0  0  0  0
   -1.5460   -1.2450    9.1873 C   0  0  0  0  0  0  0  0  0  0  0  0
   -3.1486   -0.3606    9.2182 C   0  0  0  0  0  0  0  0  0  0  0  0
   -4.0303   -1.0305    8.0911 C   0  0  0  0  0  0  0  0  0  0  0  0
   -5.4206   -0.5034    7.7020 C   0  0  0  0  0  0  0  0  0  0  0  0
   -6.1977    0.3598    8.6732 C   0  0  0  0  0  0  0  0  0  0  0  0
   -7.6501    0.1981    8.2292 C   0  0  0  0  0  0  0  0  0  0  0  0
   -7.6763   -1.0346    7.3366 C   0  0  0  0  0  0  0  0  0  0  0  0
   -6.3457   -1.6165    7.4560 N   0  0  0  0  0  0  0  0  0  0  0  0
   -0.2136   -1.1157   10.6780 N   0  0  0  0  0  0  0  0  0  0  0  0
    1.7526   -1.6611   10.8221 C   0  0  0  0  0  0  0  0  0  0  0  0
    3.5863   -2.5967   11.4351 C   0  0  0  0  0  0  0  0  0  0  0  0
    5.4728   -2.4054   12.2245 C   0  0  0  0  0  0  0  0  0  0  0  0
    6.7626   -1.4853   12.3083 C   0  0  0  0  0  0  0  0  0  0  0  0
    7.7451   -1.8297   13.6515 C   0  0  0  0  0  0  0  0  0  0  0  0
    9.0858   -1.6624   14.3255 C   0  0  0  0  0  0  0  0  0  0  0  0
    9.4355   -0.7445   15.2967 C   0  0  0  0  0  0  0  0  0  0  0  0
    8.3991   -0.2190   15.9574 C   0  0  0  0  0  0  0  0  0  0  0  0
    7.1687   -0.8310   15.7166 C   0  0  0  0  0  0  0  0  0  0  0  0
    6.8097   -1.6416   14.5486 C   0  0  0  0  0  0  0  0  0  0  0  0
    5.7912   -2.4140   13.9753 N   0  0  0  0  0  0  0  0  0  0  0  0
   -2.8274    0.5453    8.7349 H   0  0  0  0  0  0  0  0  0  0  0  0
   -3.7635    0.0166   10.0454 H   0  0  0  0  0  0  0  0  0  0  0  0
   -3.4471   -1.0252    7.1603 H   0  0  0  0  0  0  0  0  0  0  0  0
   -4.0689   -2.0909    8.2964 H   0  0  0  0  0  0  0  0  0  0  0  0
   -5.3340    0.0456    6.7568 H   0  0  0  0  0  0  0  0  0  0  0  0
   -6.0964    0.0308    9.7079 H   0  0  0  0  0  0  0  0  0  0  0  0
   -5.8813    1.4073    8.6321 H   0  0  0  0  0  0  0  0  0  0  0  0
   -7.9801    1.0801    7.6687 H   0  0  0  0  0  0  0  0  0  0  0  0
   -8.3092    0.0891    9.0964 H   0  0  0  0  0  0  0  0  0  0  0  0
   -7.8755   -0.7454    6.2984 H   0  0  0  0  0  0  0  0  0  0  0  0
   -8.4471   -1.7464    7.6466 H   0  0  0  0  0  0  0  0  0  0  0  0
   -6.0897   -2.1286    6.6134 H   0  0  0  0  0  0  0  0  0  0  0  0
   -0.6256   -0.6762   11.5048 H   0  0  0  0  0  0  0  0  0  0  0  0
    1.4516   -1.3742   11.8371 H   0  0  0  0  0  0  0  0  0  0  0  0
    2.2422   -0.7097   10.9257 H   0  0  0  0  0  0  0  0  0  0  0  0
    3.2659   -3.2154   12.3226 H   0  0  0  0  0  0  0  0  0  0  0  0
    3.8444   -3.3653   10.6986 H   0  0  0  0  0  0  0  0  0  0  0  0
    7.1263   -0.9290   11.4599 H   0  0  0  0  0  0  0  0  0  0  0  0
    9.9567   -2.2259   13.9705 H   0  0  0  0  0  0  0  0  0  0  0  0
   10.4690   -0.5374   15.5361 H   0  0  0  0  0  0  0  0  0  0  0  0
    8.5203    0.4866   16.7732 H   0  0  0  0  0  0  0  0  0  0  0  0
    6.4573   -0.6151   16.5063 H   0  0  0  0  0  0  0  0  0  0  0  0
    5.0016   -2.6736   14.5336 H   0  0  0  0  0  0  0  0  0  0  0  0
  1  2  2  0
  2  3  1  0
  3  4  1  0
  4  5  1  0
  5  6  1  0
  6  7  1  0
  7  8  1  0
  8  9  1  0
  2 10  1  0
 10 11  1  0
 11 12  1  0
 12 13  1  0
 13 14  2  0
 14 15  1  0
 15 16  2  0
 16 17  1  0
 17 18  2  0
 18 19  1  0
 19 20  2  0
 20 21  1  0
  9  5  1  0
 21 13  1  0
 20 15  1  0
  3 22  1  0
  3 23  1  0
  4 24  1  0
  4 25  1  0
  5 26  1  0
  6 27  1  0
  6 28  1  0
  7 29  1  0
  7 30  1  0
  8 31  1  0
  8 32  1  0
  9 33  1  0
 10 34  1  0
 11 35  1  0
 11 36  1  0
 12 37  1  0
 12 38  1  0
 14 39  1  0
 16 40  1  0
 17 41  1  0
 18 42  1  0
 19 43  1  0
 21 44  1  0
M  END
>  <Energy>  (86) 
756.89691965787779

>  <compound_id>  (86) 
4729

>  <target_id>  (86) 
1

>  <reference_id>  (86) 
95

>  <inspiration_ids>  (86) 
[93, 95]

>  <energy_score>  (86) 
725.1309058376066

>  <distance_score>  (86) 
6.466878071053596

>  <path>  (86) 
/opt/xchem-fragalysis-2/maxwin/BulkDock/SCRATCH/511018/C4729-P95/C4729-P95.minimised.mol

>  <scratch_subdir>  (86) 
/opt/xchem-fragalysis-2/maxwin/BulkDock/SCRATCH/511018/C4729-P95

>  <fragmenstein_runtime>  (86) 
7.774883508682251

>  <fragmenstein_outcome>  (86) 
too moved

>  <fragmenstein_mode>  (86) 
expansion

>  <fragmenstein_error>  (86) 


$$$$
C4730-P93
     RDKit          3D

 44 46  0  0  0  0  0  0  0  0999 V2000
   -2.0351    0.2039    8.6637 C   0  0  0  0  0  0  0  0  0  0  0  0
   -1.5317   -0.8540    9.3768 N   0  0  0  0  0  0  0  0  0  0  0  0
   -2.5650   -2.0595    8.7147 C   0  0  0  0  0  0  0  0  0  0  0  0
   -4.1311   -1.5929    8.0883 C   0  0  0  0  0  0  0  0  0  0  0  0
   -5.0681   -0.6332    8.7574 C   0  0  0  0  0  0  0  0  0  0  0  0
   -6.4020   -0.7907    8.0788 C   0  0  0  0  0  0  0  0  0  0  0  0
   -5.8960   -0.9061    6.6642 C   0  0  0  0  0  0  0  0  0  0  0  0
   -4.4046   -0.9714    6.8194 N   0  0  0  0  0  0  0  0  0  0  0  0
   -0.0923   -0.9289   10.7277 C   0  0  0  0  0  0  0  0  0  0  0  0
   -0.6585   -0.7146   11.9569 O   0  0  0  0  0  0  0  0  0  0  0  0
    1.9153   -0.9929   10.9448 C   0  0  0  0  0  0  0  0  0  0  0  0
    3.8786   -0.0913   11.2444 C   0  0  0  0  0  0  0  0  0  0  0  0
    5.6680   -0.8366   12.0748 C   0  0  0  0  0  0  0  0  0  0  0  0
    5.9459   -2.2362   12.5175 C   0  0  0  0  0  0  0  0  0  0  0  0
    6.3524   -2.3527   13.8269 N   0  0  0  0  0  0  0  0  0  0  0  0
    7.4614   -1.6839   13.8971 C   0  0  0  0  0  0  0  0  0  0  0  0
    8.3986   -1.8680   14.9242 C   0  0  0  0  0  0  0  0  0  0  0  0
    9.4473   -1.0206   15.1677 C   0  0  0  0  0  0  0  0  0  0  0  0
    9.5371    0.0168   14.3072 C   0  0  0  0  0  0  0  0  0  0  0  0
    8.5926    0.0923   13.2076 C   0  0  0  0  0  0  0  0  0  0  0  0
    7.3460   -0.7395   12.8315 C   0  0  0  0  0  0  0  0  0  0  0  0
   -1.9952    1.2555    8.8351 H   0  0  0  0  0  0  0  0  0  0  0  0
   -2.1382   -0.1572    7.6686 H   0  0  0  0  0  0  0  0  0  0  0  0
   -3.0290    0.2021    9.0825 H   0  0  0  0  0  0  0  0  0  0  0  0
   -2.8325   -3.0304    9.0353 H   0  0  0  0  0  0  0  0  0  0  0  0
   -2.1259   -2.1420    7.7385 H   0  0  0  0  0  0  0  0  0  0  0  0
   -4.5665   -2.5649    7.8505 H   0  0  0  0  0  0  0  0  0  0  0  0
   -5.0146   -0.6541    9.8132 H   0  0  0  0  0  0  0  0  0  0  0  0
   -4.7976    0.4003    8.4897 H   0  0  0  0  0  0  0  0  0  0  0  0
   -7.0492    0.0785    8.2280 H   0  0  0  0  0  0  0  0  0  0  0  0
   -6.9343   -1.6903    8.3914 H   0  0  0  0  0  0  0  0  0  0  0  0
   -6.2791   -1.8135    6.1854 H   0  0  0  0  0  0  0  0  0  0  0  0
   -6.1729   -0.0428    6.0504 H   0  0  0  0  0  0  0  0  0  0  0  0
   -4.0119   -0.0270    6.7202 H   0  0  0  0  0  0  0  0  0  0  0  0
    1.7447   -0.8175   12.0317 H   0  0  0  0  0  0  0  0  0  0  0  0
    2.0545   -2.0299   10.5716 H   0  0  0  0  0  0  0  0  0  0  0  0
    4.2389    0.4312   10.3371 H   0  0  0  0  0  0  0  0  0  0  0  0
    3.5785    0.8963   11.7123 H   0  0  0  0  0  0  0  0  0  0  0  0
    5.2646   -3.0708   12.2925 H   0  0  0  0  0  0  0  0  0  0  0  0
    6.0381   -3.0462   14.4844 H   0  0  0  0  0  0  0  0  0  0  0  0
    8.2598   -2.8038   15.4011 H   0  0  0  0  0  0  0  0  0  0  0  0
   10.2278   -1.2247   15.8819 H   0  0  0  0  0  0  0  0  0  0  0  0
   10.3664    0.7167   14.3582 H   0  0  0  0  0  0  0  0  0  0  0  0
    8.9634    0.9258   12.6600 H   0  0  0  0  0  0  0  0  0  0  0  0
  1  2  1  0
  2  3  1  0
  3  4  1  0
  4  5  1  0
  5  6  1  0
  6  7  1  0
  7  8  1  0
  2  9  1  0
  9 10  2  0
  9 11  1  0
 11 12  1  0
 12 13  1  0
 13 14  2  0
 14 15  1  0
 15 16  1  0
 16 17  2  0
 17 18  1  0
 18 19  2  0
 19 20  1  0
 20 21  2  0
  8  4  1  0
 21 13  1  0
 21 16  1  0
  1 22  1  0
  1 23  1  0
  1 24  1  0
  3 25  1  0
  3 26  1  0
  4 27  1  0
  5 28  1  0
  5 29  1  0
  6 30  1  0
  6 31  1  0
  7 32  1  0
  7 33  1  0
  8 34  1  0
 11 35  1  0
 11 36  1  0
 12 37  1  0
 12 38  1  0
 14 39  1  0
 15 40  1  0
 17 41  1  0
 18 42  1  0
 19 43  1  0
 20 44  1  0
M  END
>  <Energy>  (87) 
841.40152029644469

>  <compound_id>  (87) 
4730

>  <target_id>  (87) 
1

>  <reference_id>  (87) 
93

>  <inspiration_ids>  (87) 
[93, 95]

>  <energy_score>  (87) 
795.7160762049164

>  <distance_score>  (87) 
6.807252537862418

>  <path>  (87) 
/opt/xchem-fragalysis-2/maxwin/BulkDock/SCRATCH/511018/C4730-P93/C4730-P93.minimised.mol

>  <scratch_subdir>  (87) 
/opt/xchem-fragalysis-2/maxwin/BulkDock/SCRATCH/511018/C4730-P93

>  <fragmenstein_runtime>  (87) 
10.16433310508728

>  <fragmenstein_outcome>  (87) 
too moved

>  <fragmenstein_mode>  (87) 
expansion

>  <fragmenstein_error>  (87) 


$$$$
C4730-P95
     RDKit          3D

 44 46  0  0  0  0  0  0  0  0999 V2000
   -3.6330   -0.3357    8.6757 C   0  0  0  0  0  0  0  0  0  0  0  0
   -3.0473   -1.5915    8.8524 N   0  0  0  0  0  0  0  0  0  0  0  0
   -4.5859   -0.4848    8.7835 C   0  0  0  0  0  0  0  0  0  0  0  0
   -5.5864   -0.5514    7.3609 C   0  0  0  0  0  0  0  0  0  0  0  0
   -6.9320   -1.2476    7.5792 C   0  0  0  0  0  0  0  0  0  0  0  0
   -7.8321   -0.6920    6.4895 C   0  0  0  0  0  0  0  0  0  0  0  0
   -7.1074    0.5438    5.9831 C   0  0  0  0  0  0  0  0  0  0  0  0
   -6.0182    0.7839    6.9368 N   0  0  0  0  0  0  0  0  0  0  0  0
   -1.6576   -1.4414    8.6590 C   0  0  0  0  0  0  0  0  0  0  0  0
   -1.4002   -1.6499    7.4461 O   0  0  0  0  0  0  0  0  0  0  0  0
    0.1538   -1.1608    9.8522 C   0  0  0  0  0  0  0  0  0  0  0  0
    1.9435   -1.4121   10.8618 C   0  0  0  0  0  0  0  0  0  0  0  0
    3.6793   -2.3659   11.2588 C   0  0  0  0  0  0  0  0  0  0  0  0
    3.5659   -3.3916   12.2037 C   0  0  0  0  0  0  0  0  0  0  0  0
    4.8349   -3.6247   11.8969 N   0  0  0  0  0  0  0  0  0  0  0  0
    5.6598   -2.6836   13.0282 C   0  0  0  0  0  0  0  0  0  0  0  0
    6.3810   -2.5275   14.2221 C   0  0  0  0  0  0  0  0  0  0  0  0
    7.3770   -1.6172   14.2138 C   0  0  0  0  0  0  0  0  0  0  0  0
    7.4578   -0.9025   13.0422 C   0  0  0  0  0  0  0  0  0  0  0  0
    6.6254   -1.0893   11.9157 C   0  0  0  0  0  0  0  0  0  0  0  0
    5.5449   -2.0470   11.9240 C   0  0  0  0  0  0  0  0  0  0  0  0
   -2.7343    0.3454    8.4421 H   0  0  0  0  0  0  0  0  0  0  0  0
   -3.3731   -0.3952    7.5016 H   0  0  0  0  0  0  0  0  0  0  0  0
   -3.2313    0.2890    9.5541 H   0  0  0  0  0  0  0  0  0  0  0  0
   -5.0729    0.1072    9.7050 H   0  0  0  0  0  0  0  0  0  0  0  0
   -5.1793   -1.3940    9.0999 H   0  0  0  0  0  0  0  0  0  0  0  0
   -5.0440   -1.0672    6.5546 H   0  0  0  0  0  0  0  0  0  0  0  0
   -6.8498   -2.3351    7.5032 H   0  0  0  0  0  0  0  0  0  0  0  0
   -7.3497   -0.9959    8.5600 H   0  0  0  0  0  0  0  0  0  0  0  0
   -8.8207   -0.4485    6.8929 H   0  0  0  0  0  0  0  0  0  0  0  0
   -7.9657   -1.4184    5.6806 H   0  0  0  0  0  0  0  0  0  0  0  0
   -7.7711    1.4111    5.9207 H   0  0  0  0  0  0  0  0  0  0  0  0
   -6.6977    0.3582    4.9831 H   0  0  0  0  0  0  0  0  0  0  0  0
   -5.2424    1.2403    6.4374 H   0  0  0  0  0  0  0  0  0  0  0  0
    0.6644   -1.8159    9.1889 H   0  0  0  0  0  0  0  0  0  0  0  0
   -0.2985   -1.2659   10.8847 H   0  0  0  0  0  0  0  0  0  0  0  0
    2.3952   -0.4117   11.1105 H   0  0  0  0  0  0  0  0  0  0  0  0
    1.4164   -1.3415   11.8151 H   0  0  0  0  0  0  0  0  0  0  0  0
    2.8545   -4.0260   12.7201 H   0  0  0  0  0  0  0  0  0  0  0  0
    4.9943   -4.6036   11.8404 H   0  0  0  0  0  0  0  0  0  0  0  0
    6.2047   -3.2131   14.9874 H   0  0  0  0  0  0  0  0  0  0  0  0
    8.0516   -1.4509   15.0403 H   0  0  0  0  0  0  0  0  0  0  0  0
    8.1794   -0.0794   13.0096 H   0  0  0  0  0  0  0  0  0  0  0  0
    6.8887   -0.5697   11.0120 H   0  0  0  0  0  0  0  0  0  0  0  0
  1  2  1  0
  2  3  1  0
  3  4  1  0
  4  5  1  0
  5  6  1  0
  6  7  1  0
  7  8  1  0
  2  9  1  0
  9 10  2  0
  9 11  1  0
 11 12  1  0
 12 13  1  0
 13 14  2  0
 14 15  1  0
 15 16  1  0
 16 17  2  0
 17 18  1  0
 18 19  2  0
 19 20  1  0
 20 21  2  0
  8  4  1  0
 21 13  1  0
 21 16  1  0
  1 22  1  0
  1 23  1  0
  1 24  1  0
  3 25  1  0
  3 26  1  0
  4 27  1  0
  5 28  1  0
  5 29  1  0
  6 30  1  0
  6 31  1  0
  7 32  1  0
  7 33  1  0
  8 34  1  0
 11 35  1  0
 11 36  1  0
 12 37  1  0
 12 38  1  0
 14 39  1  0
 15 40  1  0
 17 41  1  0
 18 42  1  0
 19 43  1  0
 20 44  1  0
M  END
>  <Energy>  (88) 
1243.5308635165609

>  <compound_id>  (88) 
4730

>  <target_id>  (88) 
1

>  <reference_id>  (88) 
95

>  <inspiration_ids>  (88) 
[93, 95]

>  <energy_score>  (88) 
1197.8454194250469

>  <distance_score>  (88) 
7.508011668919268

>  <path>  (88) 
/opt/xchem-fragalysis-2/maxwin/BulkDock/SCRATCH/511018/C4730-P95/C4730-P95.minimised.mol

>  <scratch_subdir>  (88) 
/opt/xchem-fragalysis-2/maxwin/BulkDock/SCRATCH/511018/C4730-P95

>  <fragmenstein_runtime>  (88) 
12.16022801399231

>  <fragmenstein_outcome>  (88) 
too moved

>  <fragmenstein_mode>  (88) 
expansion

>  <fragmenstein_error>  (88) 


$$$$
C4732-P93
     RDKit          3D

 47 49  0  0  0  0  0  0  0  0999 V2000
    8.2585   -2.6679   15.2051 C   0  0  0  0  0  0  0  0  0  0  0  0
    7.2673   -2.1388   14.3318 C   0  0  0  0  0  0  0  0  0  0  0  0
    7.9372   -1.0914   13.8562 C   0  0  0  0  0  0  0  0  0  0  0  0
    7.5566   -0.7561   12.6433 C   0  0  0  0  0  0  0  0  0  0  0  0
    6.5401   -1.3451   11.9773 C   0  0  0  0  0  0  0  0  0  0  0  0
    5.5830   -2.4520   12.4232 C   0  0  0  0  0  0  0  0  0  0  0  0
    3.6562   -2.5868   11.7755 C   0  0  0  0  0  0  0  0  0  0  0  0
    2.0695   -1.1997   11.2939 C   0  0  0  0  0  0  0  0  0  0  0  0
    0.2873   -1.1324   10.1294 C   0  0  0  0  0  0  0  0  0  0  0  0
   -1.7069   -0.6471    9.2466 C   0  0  0  0  0  0  0  0  0  0  0  0
   -1.7289    0.5070    8.8934 O   0  0  0  0  0  0  0  0  0  0  0  0
   -2.9955   -1.1506    9.0722 N   0  0  0  0  0  0  0  0  0  0  0  0
   -3.0581   -1.7762    7.6517 C   0  0  0  0  0  0  0  0  0  0  0  0
   -3.7575   -1.7932    8.0250 C   0  0  0  0  0  0  0  0  0  0  0  0
   -5.4009   -1.7547    7.2055 C   0  0  0  0  0  0  0  0  0  0  0  0
   -6.6383   -1.2395    7.9570 C   0  0  0  0  0  0  0  0  0  0  0  0
   -7.8001   -2.0589    7.3992 C   0  0  0  0  0  0  0  0  0  0  0  0
   -7.2078   -2.8531    6.2495 C   0  0  0  0  0  0  0  0  0  0  0  0
   -5.7966   -3.0384    6.6189 N   0  0  0  0  0  0  0  0  0  0  0  0
    3.5861   -3.4005   13.0976 C   0  0  0  0  0  0  0  0  0  0  0  0
    4.8813   -3.0384   14.3447 N   0  0  0  0  0  0  0  0  0  0  0  0
    6.0636   -2.6390   13.7831 C   0  0  0  0  0  0  0  0  0  0  0  0
    8.5000   -1.8752   15.9235 H   0  0  0  0  0  0  0  0  0  0  0  0
    9.2109   -2.9353   14.7352 H   0  0  0  0  0  0  0  0  0  0  0  0
    7.8500   -3.5478   15.6063 H   0  0  0  0  0  0  0  0  0  0  0  0
    8.8039   -0.6070   14.3082 H   0  0  0  0  0  0  0  0  0  0  0  0
    8.1401    0.0124   12.2552 H   0  0  0  0  0  0  0  0  0  0  0  0
    6.3955   -0.8296   11.0295 H   0  0  0  0  0  0  0  0  0  0  0  0
    1.5768   -0.8884   12.2923 H   0  0  0  0  0  0  0  0  0  0  0  0
    2.6639   -0.2182   11.3558 H   0  0  0  0  0  0  0  0  0  0  0  0
   -0.0662   -0.9426   11.1026 H   0  0  0  0  0  0  0  0  0  0  0  0
    0.7798   -1.9211    9.5615 H   0  0  0  0  0  0  0  0  0  0  0  0
   -1.9103   -1.6726    7.4465 H   0  0  0  0  0  0  0  0  0  0  0  0
   -2.9973   -0.9384    6.7077 H   0  0  0  0  0  0  0  0  0  0  0  0
   -2.7861   -3.0651    7.5828 H   0  0  0  0  0  0  0  0  0  0  0  0
   -4.2248   -0.5501    8.0084 H   0  0  0  0  0  0  0  0  0  0  0  0
   -4.4538   -1.9842    8.8855 H   0  0  0  0  0  0  0  0  0  0  0  0
   -5.3053   -1.0114    6.4125 H   0  0  0  0  0  0  0  0  0  0  0  0
   -6.5799   -1.3277    9.0360 H   0  0  0  0  0  0  0  0  0  0  0  0
   -6.7942   -0.1753    7.7414 H   0  0  0  0  0  0  0  0  0  0  0  0
   -8.6285   -1.4229    7.0726 H   0  0  0  0  0  0  0  0  0  0  0  0
   -8.1858   -2.7370    8.1680 H   0  0  0  0  0  0  0  0  0  0  0  0
   -7.7139   -3.8121    6.1039 H   0  0  0  0  0  0  0  0  0  0  0  0
   -7.2744   -2.2886    5.3124 H   0  0  0  0  0  0  0  0  0  0  0  0
   -5.7660   -3.7593    7.3341 H   0  0  0  0  0  0  0  0  0  0  0  0
    2.7619   -3.8576   13.6339 H   0  0  0  0  0  0  0  0  0  0  0  0
    4.8326   -3.4834   15.2520 H   0  0  0  0  0  0  0  0  0  0  0  0
  1  2  1  0
  2  3  2  0
  3  4  1  0
  4  5  2  0
  5  6  1  0
  6  7  1  0
  7  8  1  0
  8  9  1  0
  9 10  1  0
 10 11  2  0
 10 12  1  0
 12 13  1  0
 12 14  1  0
 14 15  1  0
 15 16  1  0
 16 17  1  0
 17 18  1  0
 18 19  1  0
  7 20  2  0
 20 21  1  0
 21 22  1  0
 22  2  1  0
 22  6  2  0
 19 15  1  0
  1 23  1  0
  1 24  1  0
  1 25  1  0
  3 26  1  0
  4 27  1  0
  5 28  1  0
  8 29  1  0
  8 30  1  0
  9 31  1  0
  9 32  1  0
 13 33  1  0
 13 34  1  0
 13 35  1  0
 14 36  1  0
 14 37  1  0
 15 38  1  0
 16 39  1  0
 16 40  1  0
 17 41  1  0
 17 42  1  0
 18 43  1  0
 18 44  1  0
 19 45  1  0
 20 46  1  0
 21 47  1  0
M  END
>  <Energy>  (89) 
1401.6161828890449

>  <compound_id>  (89) 
4732

>  <target_id>  (89) 
1

>  <reference_id>  (89) 
93

>  <inspiration_ids>  (89) 
[93, 95]

>  <energy_score>  (89) 
1354.4304565142406

>  <distance_score>  (89) 
7.3370841533299975

>  <path>  (89) 
/opt/xchem-fragalysis-2/maxwin/BulkDock/SCRATCH/511018/C4732-P93/C4732-P93.minimised.mol

>  <scratch_subdir>  (89) 
/opt/xchem-fragalysis-2/maxwin/BulkDock/SCRATCH/511018/C4732-P93

>  <fragmenstein_runtime>  (89) 
11.310330629348755

>  <fragmenstein_outcome>  (89) 
too moved

>  <fragmenstein_mode>  (89) 
expansion

>  <fragmenstein_error>  (89) 


$$$$
C4732-P95
     RDKit          3D

 47 49  0  0  0  0  0  0  0  0999 V2000
    8.3389   -2.4908   15.1190 C   0  0  0  0  0  0  0  0  0  0  0  0
    7.2981   -1.9396   14.2535 C   0  0  0  0  0  0  0  0  0  0  0  0
    7.9086   -0.8482   13.8007 C   0  0  0  0  0  0  0  0  0  0  0  0
    7.5262   -0.4875   12.5679 C   0  0  0  0  0  0  0  0  0  0  0  0
    6.6345   -1.1651   11.7661 C   0  0  0  0  0  0  0  0  0  0  0  0
    5.6550   -2.1843   12.1538 C   0  0  0  0  0  0  0  0  0  0  0  0
    3.8227   -2.6556   11.6517 C   0  0  0  0  0  0  0  0  0  0  0  0
    2.2155   -1.6486   10.7946 C   0  0  0  0  0  0  0  0  0  0  0  0
    0.4148   -1.3822    9.7180 C   0  0  0  0  0  0  0  0  0  0  0  0
   -1.6794   -1.1845    8.9976 C   0  0  0  0  0  0  0  0  0  0  0  0
   -2.1921   -0.0397    8.9958 O   0  0  0  0  0  0  0  0  0  0  0  0
   -2.7551   -2.1899    8.6269 N   0  0  0  0  0  0  0  0  0  0  0  0
   -2.7440   -2.3348    7.2050 C   0  0  0  0  0  0  0  0  0  0  0  0
   -3.4247   -2.9698    7.0849 C   0  0  0  0  0  0  0  0  0  0  0  0
   -5.0861   -2.6125    6.7264 C   0  0  0  0  0  0  0  0  0  0  0  0
   -5.3512   -2.2320    5.2737 C   0  0  0  0  0  0  0  0  0  0  0  0
   -6.6834   -1.5134    5.3736 C   0  0  0  0  0  0  0  0  0  0  0  0
   -6.5319   -0.7300    6.6643 C   0  0  0  0  0  0  0  0  0  0  0  0
   -5.7545   -1.5965    7.5478 N   0  0  0  0  0  0  0  0  0  0  0  0
    3.5979   -3.2623   13.0166 C   0  0  0  0  0  0  0  0  0  0  0  0
    4.8233   -2.7482   14.2823 N   0  0  0  0  0  0  0  0  0  0  0  0
    6.0453   -2.3451   13.6828 C   0  0  0  0  0  0  0  0  0  0  0  0
    8.1680   -3.4973   15.4058 H   0  0  0  0  0  0  0  0  0  0  0  0
    8.4722   -1.7648   15.9226 H   0  0  0  0  0  0  0  0  0  0  0  0
    9.3292   -2.5354   14.6397 H   0  0  0  0  0  0  0  0  0  0  0  0
    8.7644   -0.3530   14.2603 H   0  0  0  0  0  0  0  0  0  0  0  0
    8.1368    0.3027   12.1933 H   0  0  0  0  0  0  0  0  0  0  0  0
    6.7153   -0.7056   10.7901 H   0  0  0  0  0  0  0  0  0  0  0  0
    1.6219   -1.4912   11.6559 H   0  0  0  0  0  0  0  0  0  0  0  0
    2.7595   -2.1901   10.0236 H   0  0  0  0  0  0  0  0  0  0  0  0
    1.0678   -0.5897    9.3079 H   0  0  0  0  0  0  0  0  0  0  0  0
    0.0033   -1.2265   10.7598 H   0  0  0  0  0  0  0  0  0  0  0  0
   -2.9131   -1.6024    6.1482 H   0  0  0  0  0  0  0  0  0  0  0  0
   -3.2522   -1.2026    7.3715 H   0  0  0  0  0  0  0  0  0  0  0  0
   -1.7426   -1.8607    7.0119 H   0  0  0  0  0  0  0  0  0  0  0  0
   -3.7808   -3.8377    7.7716 H   0  0  0  0  0  0  0  0  0  0  0  0
   -3.0495   -3.9324    6.4694 H   0  0  0  0  0  0  0  0  0  0  0  0
   -5.6351   -3.5447    6.9066 H   0  0  0  0  0  0  0  0  0  0  0  0
   -4.5947   -1.5451    4.8794 H   0  0  0  0  0  0  0  0  0  0  0  0
   -5.4025   -3.1047    4.6155 H   0  0  0  0  0  0  0  0  0  0  0  0
   -7.5021   -2.2394    5.4551 H   0  0  0  0  0  0  0  0  0  0  0  0
   -6.8741   -0.8686    4.5109 H   0  0  0  0  0  0  0  0  0  0  0  0
   -5.9802    0.1991    6.4790 H   0  0  0  0  0  0  0  0  0  0  0  0
   -7.4997   -0.4733    7.1055 H   0  0  0  0  0  0  0  0  0  0  0  0
   -5.1006   -1.0586    8.1229 H   0  0  0  0  0  0  0  0  0  0  0  0
    2.7675   -3.7474   13.5159 H   0  0  0  0  0  0  0  0  0  0  0  0
    4.7532   -3.1420   15.2116 H   0  0  0  0  0  0  0  0  0  0  0  0
  1  2  1  0
  2  3  2  0
  3  4  1  0
  4  5  2  0
  5  6  1  0
  6  7  1  0
  7  8  1  0
  8  9  1  0
  9 10  1  0
 10 11  2  0
 10 12  1  0
 12 13  1  0
 12 14  1  0
 14 15  1  0
 15 16  1  0
 16 17  1  0
 17 18  1  0
 18 19  1  0
  7 20  2  0
 20 21  1  0
 21 22  1  0
 22  2  1  0
 22  6  2  0
 19 15  1  0
  1 23  1  0
  1 24  1  0
  1 25  1  0
  3 26  1  0
  4 27  1  0
  5 28  1  0
  8 29  1  0
  8 30  1  0
  9 31  1  0
  9 32  1  0
 13 33  1  0
 13 34  1  0
 13 35  1  0
 14 36  1  0
 14 37  1  0
 15 38  1  0
 16 39  1  0
 16 40  1  0
 17 41  1  0
 17 42  1  0
 18 43  1  0
 18 44  1  0
 19 45  1  0
 20 46  1  0
 21 47  1  0
M  END
>  <Energy>  (90) 
1343.153948999211

>  <compound_id>  (90) 
4732

>  <target_id>  (90) 
1

>  <reference_id>  (90) 
95

>  <inspiration_ids>  (90) 
[93, 95]

>  <energy_score>  (90) 
1295.9682226244083

>  <distance_score>  (90) 
7.461248895582413

>  <path>  (90) 
/opt/xchem-fragalysis-2/maxwin/BulkDock/SCRATCH/511018/C4732-P95/C4732-P95.minimised.mol

>  <scratch_subdir>  (90) 
/opt/xchem-fragalysis-2/maxwin/BulkDock/SCRATCH/511018/C4732-P95

>  <fragmenstein_runtime>  (90) 
17.72371244430542

>  <fragmenstein_outcome>  (90) 
too moved

>  <fragmenstein_mode>  (90) 
expansion

>  <fragmenstein_error>  (90) 


$$$$
C4733-P93
     RDKit          3D

 47 49  0  0  0  0  0  0  0  0999 V2000
    9.1290   -0.8092   15.0332 C   0  0  0  0  0  0  0  0  0  0  0  0
    8.0018   -1.3817   14.2269 C   0  0  0  0  0  0  0  0  0  0  0  0
    7.6291   -0.9208   12.9785 C   0  0  0  0  0  0  0  0  0  0  0  0
    6.6321   -1.4607   12.1386 C   0  0  0  0  0  0  0  0  0  0  0  0
    5.6637   -2.5423   12.5192 C   0  0  0  0  0  0  0  0  0  0  0  0
    3.8258   -2.9788   11.9653 C   0  0  0  0  0  0  0  0  0  0  0  0
    2.3309   -2.4482   10.6597 C   0  0  0  0  0  0  0  0  0  0  0  0
    0.5083   -1.4458   10.1023 C   0  0  0  0  0  0  0  0  0  0  0  0
   -1.4561   -0.9057    9.1882 C   0  0  0  0  0  0  0  0  0  0  0  0
   -1.9935    0.1842    9.4447 O   0  0  0  0  0  0  0  0  0  0  0  0
   -2.1907   -1.5125    8.2380 N   0  0  0  0  0  0  0  0  0  0  0  0
   -1.8204   -1.2286    6.9977 C   0  0  0  0  0  0  0  0  0  0  0  0
   -3.3008   -2.3963    8.3511 C   0  0  0  0  0  0  0  0  0  0  0  0
   -4.6435   -1.8287    7.5174 C   0  0  0  0  0  0  0  0  0  0  0  0
   -5.6820   -0.9164    8.1680 C   0  0  0  0  0  0  0  0  0  0  0  0
   -6.7904   -0.8984    7.1274 C   0  0  0  0  0  0  0  0  0  0  0  0
   -6.8115   -2.3325    6.6373 C   0  0  0  0  0  0  0  0  0  0  0  0
   -5.4398   -2.8408    6.7950 N   0  0  0  0  0  0  0  0  0  0  0  0
    3.5458   -3.4780   13.2799 C   0  0  0  0  0  0  0  0  0  0  0  0
    4.8622   -3.0957   14.4557 N   0  0  0  0  0  0  0  0  0  0  0  0
    6.0425   -2.7102   13.9169 C   0  0  0  0  0  0  0  0  0  0  0  0
    7.2204   -2.3823   14.6244 C   0  0  0  0  0  0  0  0  0  0  0  0
    9.6503   -0.0120   14.4927 H   0  0  0  0  0  0  0  0  0  0  0  0
    9.8606   -1.5842   15.2810 H   0  0  0  0  0  0  0  0  0  0  0  0
    8.7382   -0.3730   15.9575 H   0  0  0  0  0  0  0  0  0  0  0  0
    8.2200   -0.1034   12.6163 H   0  0  0  0  0  0  0  0  0  0  0  0
    6.5558   -0.9186   11.2007 H   0  0  0  0  0  0  0  0  0  0  0  0
    2.3507   -1.4888   11.2756 H   0  0  0  0  0  0  0  0  0  0  0  0
    2.7809   -3.1173    9.9146 H   0  0  0  0  0  0  0  0  0  0  0  0
    0.8183   -2.0654    9.2148 H   0  0  0  0  0  0  0  0  0  0  0  0
    1.0946   -0.5553    9.9362 H   0  0  0  0  0  0  0  0  0  0  0  0
   -2.5830   -0.8216    6.3479 H   0  0  0  0  0  0  0  0  0  0  0  0
   -1.6645   -2.2237    6.8934 H   0  0  0  0  0  0  0  0  0  0  0  0
   -0.8012   -1.1179    6.6994 H   0  0  0  0  0  0  0  0  0  0  0  0
   -3.1635   -3.4263    8.0533 H   0  0  0  0  0  0  0  0  0  0  0  0
   -3.6761   -2.0921    9.2814 H   0  0  0  0  0  0  0  0  0  0  0  0
   -4.2768   -1.1359    6.7860 H   0  0  0  0  0  0  0  0  0  0  0  0
   -6.1153   -1.3086    9.0741 H   0  0  0  0  0  0  0  0  0  0  0  0
   -5.2927    0.0853    8.3664 H   0  0  0  0  0  0  0  0  0  0  0  0
   -7.7501   -0.5829    7.5470 H   0  0  0  0  0  0  0  0  0  0  0  0
   -6.5292   -0.2163    6.3093 H   0  0  0  0  0  0  0  0  0  0  0  0
   -7.1439   -2.4039    5.5978 H   0  0  0  0  0  0  0  0  0  0  0  0
   -7.4947   -2.9303    7.2514 H   0  0  0  0  0  0  0  0  0  0  0  0
   -5.4737   -3.7168    7.3029 H   0  0  0  0  0  0  0  0  0  0  0  0
    2.7143   -3.9494   13.7933 H   0  0  0  0  0  0  0  0  0  0  0  0
    4.7945   -3.5122   15.3754 H   0  0  0  0  0  0  0  0  0  0  0  0
    7.4775   -2.8349   15.5416 H   0  0  0  0  0  0  0  0  0  0  0  0
  1  2  1  0
  2  3  2  0
  3  4  1  0
  4  5  2  0
  5  6  1  0
  6  7  1  0
  7  8  1  0
  8  9  1  0
  9 10  2  0
  9 11  1  0
 11 12  1  0
 11 13  1  0
 13 14  1  0
 14 15  1  0
 15 16  1  0
 16 17  1  0
 17 18  1  0
  6 19  2  0
 19 20  1  0
 20 21  1  0
 21 22  2  0
 22  2  1  0
 21  5  1  0
 18 14  1  0
  1 23  1  0
  1 24  1  0
  1 25  1  0
  3 26  1  0
  4 27  1  0
  7 28  1  0
  7 29  1  0
  8 30  1  0
  8 31  1  0
 12 32  1  0
 12 33  1  0
 12 34  1  0
 13 35  1  0
 13 36  1  0
 14 37  1  0
 15 38  1  0
 15 39  1  0
 16 40  1  0
 16 41  1  0
 17 42  1  0
 17 43  1  0
 18 44  1  0
 19 45  1  0
 20 46  1  0
 22 47  1  0
M  END
>  <Energy>  (91) 
755.58606572500253

>  <compound_id>  (91) 
4733

>  <target_id>  (91) 
1

>  <reference_id>  (91) 
93

>  <inspiration_ids>  (91) 
[93, 95]

>  <energy_score>  (91) 
696.8002633369052

>  <distance_score>  (91) 
7.228854430345213

>  <path>  (91) 
/opt/xchem-fragalysis-2/maxwin/BulkDock/SCRATCH/511018/C4733-P93/C4733-P93.minimised.mol

>  <scratch_subdir>  (91) 
/opt/xchem-fragalysis-2/maxwin/BulkDock/SCRATCH/511018/C4733-P93

>  <fragmenstein_runtime>  (91) 
8.384443283081055

>  <fragmenstein_outcome>  (91) 
too moved

>  <fragmenstein_mode>  (91) 
expansion

>  <fragmenstein_error>  (91) 


$$$$
C4733-P95
     RDKit          3D

 47 49  0  0  0  0  0  0  0  0999 V2000
   13.0503    0.4146   13.6870 C   0  0  0  0  0  0  0  0  0  0  0  0
   12.0506    1.4976   13.3963 C   0  0  0  0  0  0  0  0  0  0  0  0
   11.9293    2.0275   12.1100 C   0  0  0  0  0  0  0  0  0  0  0  0
   11.0085    3.0498   11.8196 C   0  0  0  0  0  0  0  0  0  0  0  0
   10.2024    3.5903   12.8447 C   0  0  0  0  0  0  0  0  0  0  0  0
    9.1388    4.5886   12.8980 C   0  0  0  0  0  0  0  0  0  0  0  0
    8.4978    5.3900   11.7363 C   0  0  0  0  0  0  0  0  0  0  0  0
    6.9473    5.5600   11.7606 C   0  0  0  0  0  0  0  0  0  0  0  0
    6.3057    5.9281   10.4039 C   0  0  0  0  0  0  0  0  0  0  0  0
    6.2760    7.0951   10.0367 O   0  0  0  0  0  0  0  0  0  0  0  0
    5.8884    4.8328    9.6508 N   0  0  0  0  0  0  0  0  0  0  0  0
    4.7045    4.1396    9.4676 C   0  0  0  0  0  0  0  0  0  0  0  0
    4.0419    4.5425   10.0470 C   0  0  0  0  0  0  0  0  0  0  0  0
    2.6755    5.0548    9.0376 C   0  0  0  0  0  0  0  0  0  0  0  0
    2.1656    4.0446    7.9961 C   0  0  0  0  0  0  0  0  0  0  0  0
    0.8198    4.6327    7.5885 C   0  0  0  0  0  0  0  0  0  0  0  0
    0.3629    5.4048    8.8155 C   0  0  0  0  0  0  0  0  0  0  0  0
    1.4330    5.2291    9.8075 N   0  0  0  0  0  0  0  0  0  0  0  0
    8.8129    4.6840   14.2413 C   0  0  0  0  0  0  0  0  0  0  0  0
    9.5501    3.7777   14.9647 N   0  0  0  0  0  0  0  0  0  0  0  0
   10.3844    3.0733   14.1317 C   0  0  0  0  0  0  0  0  0  0  0  0
   11.2770    2.0323   14.4316 C   0  0  0  0  0  0  0  0  0  0  0  0
   13.1991   -0.2248   12.8105 H   0  0  0  0  0  0  0  0  0  0  0  0
   12.7020   -0.2281   14.5025 H   0  0  0  0  0  0  0  0  0  0  0  0
   14.0098    0.8580   13.9699 H   0  0  0  0  0  0  0  0  0  0  0  0
   12.5591    1.6521   11.3061 H   0  0  0  0  0  0  0  0  0  0  0  0
   10.9384    3.4334   10.8049 H   0  0  0  0  0  0  0  0  0  0  0  0
    8.7968    4.9319   10.7866 H   0  0  0  0  0  0  0  0  0  0  0  0
    8.9538    6.3887   11.7393 H   0  0  0  0  0  0  0  0  0  0  0  0
    6.4610    4.6540   12.0919 H   0  0  0  0  0  0  0  0  0  0  0  0
    6.6696    6.3333   12.4867 H   0  0  0  0  0  0  0  0  0  0  0  0
    5.3057    3.2201    9.9136 H   0  0  0  0  0  0  0  0  0  0  0  0
    4.8522    4.4775    8.3385 H   0  0  0  0  0  0  0  0  0  0  0  0
    4.5246    3.1818    8.7692 H   0  0  0  0  0  0  0  0  0  0  0  0
    3.7305    3.8271   10.9636 H   0  0  0  0  0  0  0  0  0  0  0  0
    3.9579    5.4694   10.7397 H   0  0  0  0  0  0  0  0  0  0  0  0
    2.9690    6.0043    8.5665 H   0  0  0  0  0  0  0  0  0  0  0  0
    2.0348    3.0514    8.4421 H   0  0  0  0  0  0  0  0  0  0  0  0
    2.8348    3.9509    7.1356 H   0  0  0  0  0  0  0  0  0  0  0  0
    0.9623    5.3266    6.7508 H   0  0  0  0  0  0  0  0  0  0  0  0
    0.1033    3.8819    7.2627 H   0  0  0  0  0  0  0  0  0  0  0  0
   -0.5953    5.0554    9.1966 H   0  0  0  0  0  0  0  0  0  0  0  0
    0.2501    6.4669    8.5679 H   0  0  0  0  0  0  0  0  0  0  0  0
    1.4851    6.0457   10.4160 H   0  0  0  0  0  0  0  0  0  0  0  0
    8.0914    5.3113   14.7498 H   0  0  0  0  0  0  0  0  0  0  0  0
    9.4818    3.6393   15.9655 H   0  0  0  0  0  0  0  0  0  0  0  0
   11.3612    1.6548   15.4436 H   0  0  0  0  0  0  0  0  0  0  0  0
  1  2  1  0
  2  3  2  0
  3  4  1  0
  4  5  2  0
  5  6  1  0
  6  7  1  0
  7  8  1  0
  8  9  1  0
  9 10  2  0
  9 11  1  0
 11 12  1  0
 11 13  1  0
 13 14  1  0
 14 15  1  0
 15 16  1  0
 16 17  1  0
 17 18  1  0
  6 19  2  0
 19 20  1  0
 20 21  1  0
 21 22  2  0
 22  2  1  0
 21  5  1  0
 18 14  1  0
  1 23  1  0
  1 24  1  0
  1 25  1  0
  3 26  1  0
  4 27  1  0
  7 28  1  0
  7 29  1  0
  8 30  1  0
  8 31  1  0
 12 32  1  0
 12 33  1  0
 12 34  1  0
 13 35  1  0
 13 36  1  0
 14 37  1  0
 15 38  1  0
 15 39  1  0
 16 40  1  0
 16 41  1  0
 17 42  1  0
 17 43  1  0
 18 44  1  0
 19 45  1  0
 20 46  1  0
 22 47  1  0
M  END
>  <Energy>  (92) 
600.3661626970154

>  <compound_id>  (92) 
4733

>  <target_id>  (92) 
1

>  <reference_id>  (92) 
95

>  <inspiration_ids>  (92) 
[93, 95]

>  <energy_score>  (92) 
541.5803603089236

>  <distance_score>  (92) 
10.883475055631783

>  <path>  (92) 
/opt/xchem-fragalysis-2/maxwin/BulkDock/SCRATCH/511018/C4733-P95/C4733-P95.minimised.mol

>  <scratch_subdir>  (92) 
/opt/xchem-fragalysis-2/maxwin/BulkDock/SCRATCH/511018/C4733-P95

>  <fragmenstein_runtime>  (92) 
13.741548538208008

>  <fragmenstein_outcome>  (92) 
too moved

>  <fragmenstein_mode>  (92) 
expansion

>  <fragmenstein_error>  (92) 


$$$$
C4734-P93
     RDKit          3D

 47 49  0  0  0  0  0  0  0  0999 V2000
   -5.2188   -4.2740    4.6645 C   0  0  0  0  0  0  0  0  0  0  0  0
   -4.5398   -3.8905    6.2984 C   0  0  0  0  0  0  0  0  0  0  0  0
   -4.4331   -2.4806    7.1369 C   0  0  0  0  0  0  0  0  0  0  0  0
   -3.1412   -4.7742    7.2078 N   0  0  0  0  0  0  0  0  0  0  0  0
   -1.5632   -5.4415    6.6203 C   0  0  0  0  0  0  0  0  0  0  0  0
   -1.1591   -5.5070    5.4589 O   0  0  0  0  0  0  0  0  0  0  0  0
   -0.1399   -6.0546    7.9815 C   0  0  0  0  0  0  0  0  0  0  0  0
    1.3140   -5.0616    9.0284 C   0  0  0  0  0  0  0  0  0  0  0  0
    2.7353   -4.7146   10.4933 C   0  0  0  0  0  0  0  0  0  0  0  0
    2.4676   -3.9257   11.5172 C   0  0  0  0  0  0  0  0  0  0  0  0
    3.4319   -3.0386   11.2904 N   0  0  0  0  0  0  0  0  0  0  0  0
    4.5557   -3.5758   11.9088 C   0  0  0  0  0  0  0  0  0  0  0  0
    5.7443   -2.6986   12.7443 C   0  0  0  0  0  0  0  0  0  0  0  0
    6.0039   -2.7017   14.1391 C   0  0  0  0  0  0  0  0  0  0  0  0
    4.8615   -3.2602   14.6746 C   0  0  0  0  0  0  0  0  0  0  0  0
    3.4091   -4.0463   13.7716 C   0  0  0  0  0  0  0  0  0  0  0  0
    3.6507   -4.6439   12.1216 C   0  0  0  0  0  0  0  0  0  0  0  0
   -6.2830   -3.9449    6.8328 C   0  0  0  0  0  0  0  0  0  0  0  0
   -7.0681   -2.5729    6.7001 C   0  0  0  0  0  0  0  0  0  0  0  0
   -8.5324   -2.8854    6.4400 C   0  0  0  0  0  0  0  0  0  0  0  0
   -8.6007   -4.3696    6.6246 C   0  0  0  0  0  0  0  0  0  0  0  0
   -7.2875   -4.7816    6.1852 N   0  0  0  0  0  0  0  0  0  0  0  0
   -6.1207   -3.6710    4.4258 H   0  0  0  0  0  0  0  0  0  0  0  0
   -4.4339   -4.4024    3.9162 H   0  0  0  0  0  0  0  0  0  0  0  0
   -5.8211   -5.1719    4.4774 H   0  0  0  0  0  0  0  0  0  0  0  0
   -5.1205   -2.3881    7.9638 H   0  0  0  0  0  0  0  0  0  0  0  0
   -3.4854   -2.3834    7.6878 H   0  0  0  0  0  0  0  0  0  0  0  0
   -4.6487   -1.5549    6.6280 H   0  0  0  0  0  0  0  0  0  0  0  0
   -3.2158   -4.9076    8.2114 H   0  0  0  0  0  0  0  0  0  0  0  0
   -0.6009   -6.7433    8.7196 H   0  0  0  0  0  0  0  0  0  0  0  0
    0.3212   -6.8032    7.3198 H   0  0  0  0  0  0  0  0  0  0  0  0
    1.4630   -6.0909    9.2639 H   0  0  0  0  0  0  0  0  0  0  0  0
    1.8441   -4.4802    8.2850 H   0  0  0  0  0  0  0  0  0  0  0  0
    1.8930   -4.1782   12.4301 H   0  0  0  0  0  0  0  0  0  0  0  0
    3.4715   -2.7753   10.3472 H   0  0  0  0  0  0  0  0  0  0  0  0
    6.3867   -1.9694   12.2049 H   0  0  0  0  0  0  0  0  0  0  0  0
    6.8446   -2.2551   14.6310 H   0  0  0  0  0  0  0  0  0  0  0  0
    4.7717   -3.5235   15.7360 H   0  0  0  0  0  0  0  0  0  0  0  0
    2.6877   -4.6085   14.3779 H   0  0  0  0  0  0  0  0  0  0  0  0
   -6.3122   -4.2951    7.8367 H   0  0  0  0  0  0  0  0  0  0  0  0
   -7.0177   -1.9786    7.6190 H   0  0  0  0  0  0  0  0  0  0  0  0
   -6.6966   -1.9590    5.8731 H   0  0  0  0  0  0  0  0  0  0  0  0
   -9.2007   -2.3496    7.1211 H   0  0  0  0  0  0  0  0  0  0  0  0
   -8.7985   -2.6042    5.4138 H   0  0  0  0  0  0  0  0  0  0  0  0
   -9.3988   -4.8116    6.0264 H   0  0  0  0  0  0  0  0  0  0  0  0
   -8.7425   -4.6188    7.6784 H   0  0  0  0  0  0  0  0  0  0  0  0
   -7.1351   -5.7783    6.2149 H   0  0  0  0  0  0  0  0  0  0  0  0
  1  2  1  0
  2  3  1  0
  2  4  1  0
  4  5  1  0
  5  6  2  0
  5  7  1  0
  7  8  1  0
  8  9  1  0
  9 10  2  0
 10 11  1  0
 11 12  1  0
 12 13  2  0
 13 14  1  0
 14 15  2  0
 15 16  1  0
 16 17  2  0
  2 18  1  0
 18 19  1  0
 19 20  1  0
 20 21  1  0
 21 22  1  0
 17  9  1  0
 22 18  1  0
 17 12  1  0
  1 23  1  0
  1 24  1  0
  1 25  1  0
  3 26  1  0
  3 27  1  0
  3 28  1  0
  4 29  1  0
  7 30  1  0
  7 31  1  0
  8 32  1  0
  8 33  1  0
 10 34  1  0
 11 35  1  0
 13 36  1  0
 14 37  1  0
 15 38  1  0
 16 39  1  0
 18 40  1  0
 19 41  1  0
 19 42  1  0
 20 43  1  0
 20 44  1  0
 21 45  1  0
 21 46  1  0
 22 47  1  0
M  END
>  <Energy>  (93) 
1020.4379283925695

>  <compound_id>  (93) 
4734

>  <target_id>  (93) 
1

>  <reference_id>  (93) 
93

>  <inspiration_ids>  (93) 
[93, 95]

>  <energy_score>  (93) 
959.4626114813299

>  <distance_score>  (93) 
8.666306101139364

>  <path>  (93) 
/opt/xchem-fragalysis-2/maxwin/BulkDock/SCRATCH/511018/C4734-P93/C4734-P93.minimised.mol

>  <scratch_subdir>  (93) 
/opt/xchem-fragalysis-2/maxwin/BulkDock/SCRATCH/511018/C4734-P93

>  <fragmenstein_runtime>  (93) 
11.581668138504028

>  <fragmenstein_outcome>  (93) 
too moved

>  <fragmenstein_mode>  (93) 
expansion

>  <fragmenstein_error>  (93) 


$$$$
C4734-P95
     RDKit          3D

 47 49  0  0  0  0  0  0  0  0999 V2000
   -2.1733   -1.0815    7.3766 C   0  0  0  0  0  0  0  0  0  0  0  0
   -2.4471   -0.7183    8.9229 C   0  0  0  0  0  0  0  0  0  0  0  0
   -3.0610    0.7292    9.0815 C   0  0  0  0  0  0  0  0  0  0  0  0
   -0.9587   -1.0085   10.2286 N   0  0  0  0  0  0  0  0  0  0  0  0
    0.8204   -1.3907    9.9450 C   0  0  0  0  0  0  0  0  0  0  0  0
    1.2654   -1.5969    8.8613 O   0  0  0  0  0  0  0  0  0  0  0  0
    2.1627   -1.4762   11.1563 C   0  0  0  0  0  0  0  0  0  0  0  0
    4.0188   -2.4172   11.5402 C   0  0  0  0  0  0  0  0  0  0  0  0
    5.8710   -1.9377   12.4010 C   0  0  0  0  0  0  0  0  0  0  0  0
    5.9888   -2.3392   13.8816 C   0  0  0  0  0  0  0  0  0  0  0  0
    7.1977   -2.4176   14.4594 N   0  0  0  0  0  0  0  0  0  0  0  0
    7.9502   -1.4188   14.1056 C   0  0  0  0  0  0  0  0  0  0  0  0
    9.1758   -0.9594   14.8125 C   0  0  0  0  0  0  0  0  0  0  0  0
   10.0329    0.0556   14.3367 C   0  0  0  0  0  0  0  0  0  0  0  0
    9.6310    0.6851   13.1775 C   0  0  0  0  0  0  0  0  0  0  0  0
    8.2568    0.2739   12.6680 C   0  0  0  0  0  0  0  0  0  0  0  0
    7.3096   -0.9836   12.8491 C   0  0  0  0  0  0  0  0  0  0  0  0
   -4.0673   -1.4949    8.5617 C   0  0  0  0  0  0  0  0  0  0  0  0
   -5.3324   -0.6602    8.0976 C   0  0  0  0  0  0  0  0  0  0  0  0
   -6.3319   -1.5933    7.4466 C   0  0  0  0  0  0  0  0  0  0  0  0
   -5.4772   -2.6789    6.8634 C   0  0  0  0  0  0  0  0  0  0  0  0
   -4.1813   -2.5749    7.5117 N   0  0  0  0  0  0  0  0  0  0  0  0
   -2.0762   -2.1341    7.3241 H   0  0  0  0  0  0  0  0  0  0  0  0
   -1.4476   -0.7080    6.6809 H   0  0  0  0  0  0  0  0  0  0  0  0
   -3.0163   -0.9614    6.7164 H   0  0  0  0  0  0  0  0  0  0  0  0
   -2.4590    1.5544    8.7166 H   0  0  0  0  0  0  0  0  0  0  0  0
   -3.3673    0.8583   10.1151 H   0  0  0  0  0  0  0  0  0  0  0  0
   -3.9640    0.9465    8.5433 H   0  0  0  0  0  0  0  0  0  0  0  0
   -1.1332   -0.9515   11.2303 H   0  0  0  0  0  0  0  0  0  0  0  0
    1.4610   -1.2545   12.0118 H   0  0  0  0  0  0  0  0  0  0  0  0
    2.5241   -0.4165   11.2033 H   0  0  0  0  0  0  0  0  0  0  0  0
    3.6704   -3.0876   12.3761 H   0  0  0  0  0  0  0  0  0  0  0  0
    4.1514   -3.3170   10.9334 H   0  0  0  0  0  0  0  0  0  0  0  0
    5.1959   -2.6912   14.5230 H   0  0  0  0  0  0  0  0  0  0  0  0
    7.4719   -2.9761   15.2339 H   0  0  0  0  0  0  0  0  0  0  0  0
    9.4861   -1.4869   15.7038 H   0  0  0  0  0  0  0  0  0  0  0  0
   10.9709    0.2861   14.8247 H   0  0  0  0  0  0  0  0  0  0  0  0
   10.2350    1.4173   12.6599 H   0  0  0  0  0  0  0  0  0  0  0  0
    8.0705    0.6676   13.6958 H   0  0  0  0  0  0  0  0  0  0  0  0
   -4.3740   -1.7557    9.5185 H   0  0  0  0  0  0  0  0  0  0  0  0
   -5.8220   -0.1738    8.9418 H   0  0  0  0  0  0  0  0  0  0  0  0
   -5.1307    0.0878    7.3379 H   0  0  0  0  0  0  0  0  0  0  0  0
   -7.0424   -1.9719    8.1845 H   0  0  0  0  0  0  0  0  0  0  0  0
   -6.9210   -1.0796    6.6790 H   0  0  0  0  0  0  0  0  0  0  0  0
   -5.3442   -2.5303    5.7865 H   0  0  0  0  0  0  0  0  0  0  0  0
   -5.9490   -3.6538    6.9966 H   0  0  0  0  0  0  0  0  0  0  0  0
   -3.7246   -3.4573    7.7338 H   0  0  0  0  0  0  0  0  0  0  0  0
  1  2  1  0
  2  3  1  0
  2  4  1  0
  4  5  1  0
  5  6  2  0
  5  7  1  0
  7  8  1  0
  8  9  1  0
  9 10  2  0
 10 11  1  0
 11 12  1  0
 12 13  2  0
 13 14  1  0
 14 15  2  0
 15 16  1  0
 16 17  2  0
  2 18  1  0
 18 19  1  0
 19 20  1  0
 20 21  1  0
 21 22  1  0
 17  9  1  0
 22 18  1  0
 17 12  1  0
  1 23  1  0
  1 24  1  0
  1 25  1  0
  3 26  1  0
  3 27  1  0
  3 28  1  0
  4 29  1  0
  7 30  1  0
  7 31  1  0
  8 32  1  0
  8 33  1  0
 10 34  1  0
 11 35  1  0
 13 36  1  0
 14 37  1  0
 15 38  1  0
 16 39  1  0
 18 40  1  0
 19 41  1  0
 19 42  1  0
 20 43  1  0
 20 44  1  0
 21 45  1  0
 21 46  1  0
 22 47  1  0
M  END
>  <Energy>  (94) 
788.47396940141266

>  <compound_id>  (94) 
4734

>  <target_id>  (94) 
1

>  <reference_id>  (94) 
95

>  <inspiration_ids>  (94) 
[93, 95]

>  <energy_score>  (94) 
727.4986524901921

>  <distance_score>  (94) 
6.989600050561635

>  <path>  (94) 
/opt/xchem-fragalysis-2/maxwin/BulkDock/SCRATCH/511018/C4734-P95/C4734-P95.minimised.mol

>  <scratch_subdir>  (94) 
/opt/xchem-fragalysis-2/maxwin/BulkDock/SCRATCH/511018/C4734-P95

>  <fragmenstein_runtime>  (94) 
8.53190565109253

>  <fragmenstein_outcome>  (94) 
too moved

>  <fragmenstein_mode>  (94) 
expansion

>  <fragmenstein_error>  (94) 


$$$$
C4746-P93
     RDKit          3D

 34 36  0  0  0  0  0  0  0  0999 V2000
    6.8832    6.5811   11.2613 F   0  0  0  0  0  0  0  0  0  0  0  0
    6.8452    5.2541   11.5756 C   0  0  0  0  0  0  0  0  0  0  0  0
    7.2860    4.6072   10.4602 F   0  0  0  0  0  0  0  0  0  0  0  0
    5.3470    4.8541   11.8234 C   0  0  0  0  0  0  0  0  0  0  0  0
    4.3602    4.8516   10.6021 C   0  0  0  0  0  0  0  0  0  0  0  0
    4.3367    3.5826    9.7399 C   0  0  0  0  0  0  0  0  0  0  0  0
    2.9599    3.5560    9.0691 C   0  0  0  0  0  0  0  0  0  0  0  0
    2.1515    4.6018    9.8143 C   0  0  0  0  0  0  0  0  0  0  0  0
    2.9306    4.8966   11.0286 N   0  0  0  0  0  0  0  0  0  0  0  0
    7.8405    4.9852   12.7628 C   0  0  0  0  0  0  0  0  0  0  0  0
    7.5657    5.1174   14.1202 C   0  0  0  0  0  0  0  0  0  0  0  0
    8.5978    4.5950   14.8596 N   0  0  0  0  0  0  0  0  0  0  0  0
    9.5898    4.1364   14.0291 C   0  0  0  0  0  0  0  0  0  0  0  0
   10.7633    3.4297   14.3380 C   0  0  0  0  0  0  0  0  0  0  0  0
   11.6210    3.1061   13.2870 C   0  0  0  0  0  0  0  0  0  0  0  0
   11.3368    3.5230   11.9900 C   0  0  0  0  0  0  0  0  0  0  0  0
   10.1612    4.2374   11.7014 C   0  0  0  0  0  0  0  0  0  0  0  0
    9.2226    4.5049   12.7269 C   0  0  0  0  0  0  0  0  0  0  0  0
    5.2874    3.8665   12.2799 H   0  0  0  0  0  0  0  0  0  0  0  0
    4.9559    5.5622   12.5664 H   0  0  0  0  0  0  0  0  0  0  0  0
    4.5636    5.7341    9.9826 H   0  0  0  0  0  0  0  0  0  0  0  0
    5.1456    3.5743    9.0034 H   0  0  0  0  0  0  0  0  0  0  0  0
    4.4349    2.6895   10.3622 H   0  0  0  0  0  0  0  0  0  0  0  0
    3.0357    3.8073    8.0059 H   0  0  0  0  0  0  0  0  0  0  0  0
    2.5226    2.5566    9.1502 H   0  0  0  0  0  0  0  0  0  0  0  0
    1.1382    4.2689   10.0509 H   0  0  0  0  0  0  0  0  0  0  0  0
    2.0626    5.5144    9.2135 H   0  0  0  0  0  0  0  0  0  0  0  0
    2.7760    4.1435   11.7031 H   0  0  0  0  0  0  0  0  0  0  0  0
    6.6734    5.4717   14.6229 H   0  0  0  0  0  0  0  0  0  0  0  0
    8.6028    4.5147   15.8681 H   0  0  0  0  0  0  0  0  0  0  0  0
   11.0035    3.1494   15.3587 H   0  0  0  0  0  0  0  0  0  0  0  0
   12.5399    2.5597   13.4887 H   0  0  0  0  0  0  0  0  0  0  0  0
   12.0340    3.2971   11.1851 H   0  0  0  0  0  0  0  0  0  0  0  0
    9.9441    4.5311   10.6760 H   0  0  0  0  0  0  0  0  0  0  0  0
  1  2  1  0
  2  3  1  0
  2  4  1  0
  4  5  1  0
  5  6  1  0
  6  7  1  0
  7  8  1  0
  8  9  1  0
  2 10  1  0
 10 11  2  0
 11 12  1  0
 12 13  1  0
 13 14  2  0
 14 15  1  0
 15 16  2  0
 16 17  1  0
 17 18  2  0
  9  5  1  0
 18 10  1  0
 18 13  1  0
  4 19  1  0
  4 20  1  0
  5 21  1  0
  6 22  1  0
  6 23  1  0
  7 24  1  0
  7 25  1  0
  8 26  1  0
  8 27  1  0
  9 28  1  0
 11 29  1  0
 12 30  1  0
 14 31  1  0
 15 32  1  0
 16 33  1  0
 17 34  1  0
M  END
>  <Energy>  (95) 
47.077874658111945

>  <compound_id>  (95) 
4746

>  <target_id>  (95) 
1

>  <reference_id>  (95) 
93

>  <inspiration_ids>  (95) 
[93, 95]

>  <energy_score>  (95) 
-8.602068067527

>  <distance_score>  (95) 
11.071894414921353

>  <path>  (95) 
/opt/xchem-fragalysis-2/maxwin/BulkDock/SCRATCH/511018/C4746-P93/C4746-P93.minimised.mol

>  <scratch_subdir>  (95) 
/opt/xchem-fragalysis-2/maxwin/BulkDock/SCRATCH/511018/C4746-P93

>  <fragmenstein_runtime>  (95) 
7.582655429840088

>  <fragmenstein_outcome>  (95) 
too moved

>  <fragmenstein_mode>  (95) 
expansion

>  <fragmenstein_error>  (95) 


$$$$
C4746-P95
     RDKit          3D

 34 36  0  0  0  0  0  0  0  0999 V2000
    2.7977   -0.1443   11.4543 F   0  0  0  0  0  0  0  0  0  0  0  0
    3.5772   -1.4838   11.0400 C   0  0  0  0  0  0  0  0  0  0  0  0
    3.4838   -2.7107   11.6645 F   0  0  0  0  0  0  0  0  0  0  0  0
    1.6783   -1.3495   10.0962 C   0  0  0  0  0  0  0  0  0  0  0  0
   -0.3348   -1.0566    9.7318 C   0  0  0  0  0  0  0  0  0  0  0  0
   -2.0738   -0.3430    8.7744 C   0  0  0  0  0  0  0  0  0  0  0  0
   -2.9922   -0.8845    7.6187 C   0  0  0  0  0  0  0  0  0  0  0  0
   -2.9755   -2.1306    8.2724 C   0  0  0  0  0  0  0  0  0  0  0  0
   -1.5741   -1.8448    8.5322 N   0  0  0  0  0  0  0  0  0  0  0  0
    5.4364   -0.9113   11.9278 C   0  0  0  0  0  0  0  0  0  0  0  0
    6.5899   -0.6508   11.1488 C   0  0  0  0  0  0  0  0  0  0  0  0
    7.5608   -0.9870   11.8477 N   0  0  0  0  0  0  0  0  0  0  0  0
    7.5654   -0.6350   13.1082 C   0  0  0  0  0  0  0  0  0  0  0  0
    8.5853   -0.2543   14.0495 C   0  0  0  0  0  0  0  0  0  0  0  0
    8.7648   -1.2261   14.9718 C   0  0  0  0  0  0  0  0  0  0  0  0
    7.8073   -2.2136   14.9673 C   0  0  0  0  0  0  0  0  0  0  0  0
    6.5183   -2.1575   14.3501 C   0  0  0  0  0  0  0  0  0  0  0  0
    6.4096   -1.3754   13.2313 C   0  0  0  0  0  0  0  0  0  0  0  0
    1.3178   -1.4684   11.1248 H   0  0  0  0  0  0  0  0  0  0  0  0
    1.6893   -0.4483    9.4653 H   0  0  0  0  0  0  0  0  0  0  0  0
   -0.6573   -1.1948   10.8732 H   0  0  0  0  0  0  0  0  0  0  0  0
   -2.1589    0.6895    8.4593 H   0  0  0  0  0  0  0  0  0  0  0  0
   -2.8656   -0.1175    9.5007 H   0  0  0  0  0  0  0  0  0  0  0  0
   -2.5684   -0.8753    6.6061 H   0  0  0  0  0  0  0  0  0  0  0  0
   -4.0144   -0.4890    7.6185 H   0  0  0  0  0  0  0  0  0  0  0  0
   -3.2155   -2.9336    7.5701 H   0  0  0  0  0  0  0  0  0  0  0  0
   -3.7146   -2.0417    9.0388 H   0  0  0  0  0  0  0  0  0  0  0  0
   -1.1399   -1.6669    7.6036 H   0  0  0  0  0  0  0  0  0  0  0  0
    6.7356   -0.3344   10.1292 H   0  0  0  0  0  0  0  0  0  0  0  0
    7.7280   -1.9530   11.7252 H   0  0  0  0  0  0  0  0  0  0  0  0
    9.4062    0.4016   13.7741 H   0  0  0  0  0  0  0  0  0  0  0  0
    9.6991   -1.3123   15.5109 H   0  0  0  0  0  0  0  0  0  0  0  0
    8.0907   -3.1437   15.4114 H   0  0  0  0  0  0  0  0  0  0  0  0
    5.7201   -2.8075   14.6392 H   0  0  0  0  0  0  0  0  0  0  0  0
  1  2  1  0
  2  3  1  0
  2  4  1  0
  4  5  1  0
  5  6  1  0
  6  7  1  0
  7  8  1  0
  8  9  1  0
  2 10  1  0
 10 11  2  0
 11 12  1  0
 12 13  1  0
 13 14  2  0
 14 15  1  0
 15 16  2  0
 16 17  1  0
 17 18  2  0
  9  5  1  0
 18 10  1  0
 18 13  1  0
  4 19  1  0
  4 20  1  0
  5 21  1  0
  6 22  1  0
  6 23  1  0
  7 24  1  0
  7 25  1  0
  8 26  1  0
  8 27  1  0
  9 28  1  0
 11 29  1  0
 12 30  1  0
 14 31  1  0
 15 32  1  0
 16 33  1  0
 17 34  1  0
M  END
>  <Energy>  (96) 
1017.6260842140342

>  <compound_id>  (96) 
4746

>  <target_id>  (96) 
1

>  <reference_id>  (96) 
95

>  <inspiration_ids>  (96) 
[93, 95]

>  <energy_score>  (96) 
961.9461414883979

>  <distance_score>  (96) 
7.58292080278988

>  <path>  (96) 
/opt/xchem-fragalysis-2/maxwin/BulkDock/SCRATCH/511018/C4746-P95/C4746-P95.minimised.mol

>  <scratch_subdir>  (96) 
/opt/xchem-fragalysis-2/maxwin/BulkDock/SCRATCH/511018/C4746-P95

>  <fragmenstein_runtime>  (96) 
7.1929686069488525

>  <fragmenstein_outcome>  (96) 
too moved

>  <fragmenstein_mode>  (96) 
expansion

>  <fragmenstein_error>  (96) 


$$$$
C4747-P93
     RDKit          3D

 37 39  0  0  0  0  0  0  0  0999 V2000
    7.0186   -0.8986   15.8354 C   0  0  0  0  0  0  0  0  0  0  0  0
    6.1559   -1.4441   14.2429 C   0  0  0  0  0  0  0  0  0  0  0  0
    6.8192   -2.4958   13.8529 N   0  0  0  0  0  0  0  0  0  0  0  0
    7.9974   -1.8687   13.9341 C   0  0  0  0  0  0  0  0  0  0  0  0
    9.2130   -2.1818   14.7428 C   0  0  0  0  0  0  0  0  0  0  0  0
   10.1942   -1.2282   15.0096 C   0  0  0  0  0  0  0  0  0  0  0  0
   10.0735   -0.0174   14.3712 C   0  0  0  0  0  0  0  0  0  0  0  0
    8.9873    0.2164   13.4512 C   0  0  0  0  0  0  0  0  0  0  0  0
    7.7476   -0.6596   13.1092 C   0  0  0  0  0  0  0  0  0  0  0  0
    5.9162   -0.4367   12.8233 C   0  0  0  0  0  0  0  0  0  0  0  0
    4.5796    1.2195   12.5734 C   0  0  0  0  0  0  0  0  0  0  0  0
    3.9960    0.9225   11.1968 F   0  0  0  0  0  0  0  0  0  0  0  0
    5.0394    2.5801   12.4042 F   0  0  0  0  0  0  0  0  0  0  0  0
    3.0071    1.6602   13.0309 C   0  0  0  0  0  0  0  0  0  0  0  0
    2.6518    3.1840   12.7214 C   0  0  0  0  0  0  0  0  0  0  0  0
    1.2918    3.6404   13.3106 C   0  0  0  0  0  0  0  0  0  0  0  0
    0.6399    4.5209   12.2462 C   0  0  0  0  0  0  0  0  0  0  0  0
    1.7741    4.8367   11.2848 C   0  0  0  0  0  0  0  0  0  0  0  0
    2.6265    3.6540   11.3275 N   0  0  0  0  0  0  0  0  0  0  0  0
    7.6595   -0.0129   15.7663 H   0  0  0  0  0  0  0  0  0  0  0  0
    7.6257   -1.7502   16.0202 H   0  0  0  0  0  0  0  0  0  0  0  0
    6.4137   -0.8153   16.7301 H   0  0  0  0  0  0  0  0  0  0  0  0
    6.6238   -3.2682   14.4277 H   0  0  0  0  0  0  0  0  0  0  0  0
    9.3822   -3.2155   14.9978 H   0  0  0  0  0  0  0  0  0  0  0  0
   11.0851   -1.4815   15.5731 H   0  0  0  0  0  0  0  0  0  0  0  0
   10.8676    0.7210   14.4551 H   0  0  0  0  0  0  0  0  0  0  0  0
    9.2335    1.0988   12.8846 H   0  0  0  0  0  0  0  0  0  0  0  0
    2.7031    1.6023   14.0690 H   0  0  0  0  0  0  0  0  0  0  0  0
    2.3449    0.9521   12.5757 H   0  0  0  0  0  0  0  0  0  0  0  0
    3.3981    3.8055   13.2351 H   0  0  0  0  0  0  0  0  0  0  0  0
    1.4778    4.2403   14.2108 H   0  0  0  0  0  0  0  0  0  0  0  0
    0.6338    2.8262   13.6192 H   0  0  0  0  0  0  0  0  0  0  0  0
    0.2106    5.4292   12.6810 H   0  0  0  0  0  0  0  0  0  0  0  0
   -0.1713    3.9866   11.7413 H   0  0  0  0  0  0  0  0  0  0  0  0
    2.3331    5.7141   11.6304 H   0  0  0  0  0  0  0  0  0  0  0  0
    1.4092    5.0356   10.2733 H   0  0  0  0  0  0  0  0  0  0  0  0
    3.5748    3.8233   10.9924 H   0  0  0  0  0  0  0  0  0  0  0  0
  1  2  1  0
  2  3  1  0
  3  4  1  0
  4  5  2  0
  5  6  1  0
  6  7  2  0
  7  8  1  0
  8  9  2  0
  9 10  1  0
 10 11  1  0
 11 12  1  0
 11 13  1  0
 11 14  1  0
 14 15  1  0
 15 16  1  0
 16 17  1  0
 17 18  1  0
 18 19  1  0
 10  2  2  0
 19 15  1  0
  9  4  1  0
  1 20  1  0
  1 21  1  0
  1 22  1  0
  3 23  1  0
  5 24  1  0
  6 25  1  0
  7 26  1  0
  8 27  1  0
 14 28  1  0
 14 29  1  0
 15 30  1  0
 16 31  1  0
 16 32  1  0
 17 33  1  0
 17 34  1  0
 18 35  1  0
 18 36  1  0
 19 37  1  0
M  END
>  <Energy>  (97) 
513.882910253619

>  <compound_id>  (97) 
4747

>  <target_id>  (97) 
1

>  <reference_id>  (97) 
93

>  <inspiration_ids>  (97) 
[93, 95]

>  <energy_score>  (97) 
448.7537156419076

>  <distance_score>  (97) 
10.16343535997685

>  <path>  (97) 
/opt/xchem-fragalysis-2/maxwin/BulkDock/SCRATCH/511018/C4747-P93/C4747-P93.minimised.mol

>  <scratch_subdir>  (97) 
/opt/xchem-fragalysis-2/maxwin/BulkDock/SCRATCH/511018/C4747-P93

>  <fragmenstein_runtime>  (97) 
9.005347490310669

>  <fragmenstein_outcome>  (97) 
too moved

>  <fragmenstein_mode>  (97) 
expansion

>  <fragmenstein_error>  (97) 


$$$$
C4747-P95
     RDKit          3D

 37 39  0  0  0  0  0  0  0  0999 V2000
    3.7235   -5.0389   11.9040 C   0  0  0  0  0  0  0  0  0  0  0  0
    3.2823   -4.5065   13.2412 C   0  0  0  0  0  0  0  0  0  0  0  0
    3.6107   -4.6094   14.8270 N   0  0  0  0  0  0  0  0  0  0  0  0
    4.7997   -3.4732   15.2081 C   0  0  0  0  0  0  0  0  0  0  0  0
    6.5703   -3.2127   14.8248 C   0  0  0  0  0  0  0  0  0  0  0  0
    7.5842   -2.3174   14.7630 C   0  0  0  0  0  0  0  0  0  0  0  0
    6.6891   -1.4236   14.8341 C   0  0  0  0  0  0  0  0  0  0  0  0
    5.0660   -1.9882   14.6650 C   0  0  0  0  0  0  0  0  0  0  0  0
    4.2370   -2.9332   13.9901 C   0  0  0  0  0  0  0  0  0  0  0  0
    2.4705   -3.5433   13.6149 C   0  0  0  0  0  0  0  0  0  0  0  0
    1.2453   -4.8945   13.9250 C   0  0  0  0  0  0  0  0  0  0  0  0
    1.4072   -5.3232   12.5921 F   0  0  0  0  0  0  0  0  0  0  0  0
    1.8051   -5.5548   14.9307 F   0  0  0  0  0  0  0  0  0  0  0  0
   -0.5991   -5.4323   13.8993 C   0  0  0  0  0  0  0  0  0  0  0  0
   -1.2381   -6.8376   14.2336 C   0  0  0  0  0  0  0  0  0  0  0  0
   -2.6849   -6.7057   14.7848 C   0  0  0  0  0  0  0  0  0  0  0  0
   -3.4920   -7.8724   14.2243 C   0  0  0  0  0  0  0  0  0  0  0  0
   -2.5102   -8.6535   13.3794 C   0  0  0  0  0  0  0  0  0  0  0  0
   -1.4328   -7.7199   13.0660 N   0  0  0  0  0  0  0  0  0  0  0  0
    2.8552   -5.3263   11.3402 H   0  0  0  0  0  0  0  0  0  0  0  0
    4.2589   -4.2776   11.3379 H   0  0  0  0  0  0  0  0  0  0  0  0
    4.2485   -5.9882   11.8802 H   0  0  0  0  0  0  0  0  0  0  0  0
    2.8705   -4.5620   15.4779 H   0  0  0  0  0  0  0  0  0  0  0  0
    6.4377   -3.0887   13.7294 H   0  0  0  0  0  0  0  0  0  0  0  0
    8.6213   -2.3755   14.9742 H   0  0  0  0  0  0  0  0  0  0  0  0
    6.9428   -0.6215   15.5564 H   0  0  0  0  0  0  0  0  0  0  0  0
    4.6295   -1.8534   15.8788 H   0  0  0  0  0  0  0  0  0  0  0  0
   -0.8047   -5.4850   12.8181 H   0  0  0  0  0  0  0  0  0  0  0  0
   -1.3054   -4.6242   14.1271 H   0  0  0  0  0  0  0  0  0  0  0  0
   -0.6193   -7.3873   14.9479 H   0  0  0  0  0  0  0  0  0  0  0  0
   -2.7048   -6.7596   15.8775 H   0  0  0  0  0  0  0  0  0  0  0  0
   -3.1581   -5.7550   14.5158 H   0  0  0  0  0  0  0  0  0  0  0  0
   -3.8990   -8.4946   15.0288 H   0  0  0  0  0  0  0  0  0  0  0  0
   -4.3426   -7.5131   13.6358 H   0  0  0  0  0  0  0  0  0  0  0  0
   -2.1018   -9.4948   13.9508 H   0  0  0  0  0  0  0  0  0  0  0  0
   -2.9725   -9.0622   12.4756 H   0  0  0  0  0  0  0  0  0  0  0  0
   -1.6655   -7.2252   12.1972 H   0  0  0  0  0  0  0  0  0  0  0  0
  1  2  1  0
  2  3  1  0
  3  4  1  0
  4  5  2  0
  5  6  1  0
  6  7  2  0
  7  8  1  0
  8  9  2  0
  9 10  1  0
 10 11  1  0
 11 12  1  0
 11 13  1  0
 11 14  1  0
 14 15  1  0
 15 16  1  0
 16 17  1  0
 17 18  1  0
 18 19  1  0
 10  2  2  0
 19 15  1  0
  9  4  1  0
  1 20  1  0
  1 21  1  0
  1 22  1  0
  3 23  1  0
  5 24  1  0
  6 25  1  0
  7 26  1  0
  8 27  1  0
 14 28  1  0
 14 29  1  0
 15 30  1  0
 16 31  1  0
 16 32  1  0
 17 33  1  0
 17 34  1  0
 18 35  1  0
 18 36  1  0
 19 37  1  0
M  END
>  <Energy>  (98) 
872.83224363694433

>  <compound_id>  (98) 
4747

>  <target_id>  (98) 
1

>  <reference_id>  (98) 
95

>  <inspiration_ids>  (98) 
[93, 95]

>  <energy_score>  (98) 
807.7030490252343

>  <distance_score>  (98) 
10.4902036547281

>  <path>  (98) 
/opt/xchem-fragalysis-2/maxwin/BulkDock/SCRATCH/511018/C4747-P95/C4747-P95.minimised.mol

>  <scratch_subdir>  (98) 
/opt/xchem-fragalysis-2/maxwin/BulkDock/SCRATCH/511018/C4747-P95

>  <fragmenstein_runtime>  (98) 
11.456255912780762

>  <fragmenstein_outcome>  (98) 
too moved

>  <fragmenstein_mode>  (98) 
expansion

>  <fragmenstein_error>  (98) 


$$$$
C4748-P93
     RDKit          3D

 37 39  0  0  0  0  0  0  0  0999 V2000
    6.2154   -2.6487   14.8218 C   0  0  0  0  0  0  0  0  0  0  0  0
    6.6270   -2.1728   13.6095 N   0  0  0  0  0  0  0  0  0  0  0  0
    5.9836   -2.1058   12.4595 C   0  0  0  0  0  0  0  0  0  0  0  0
    5.5767   -0.7311   11.9758 C   0  0  0  0  0  0  0  0  0  0  0  0
    3.7149    0.0277   11.2250 C   0  0  0  0  0  0  0  0  0  0  0  0
    4.0691    0.8469   10.1378 F   0  0  0  0  0  0  0  0  0  0  0  0
    3.2437    1.1160   12.0527 F   0  0  0  0  0  0  0  0  0  0  0  0
    1.7687   -0.8627   10.7022 C   0  0  0  0  0  0  0  0  0  0  0  0
   -0.2031   -1.0328    9.9875 C   0  0  0  0  0  0  0  0  0  0  0  0
   -2.0238   -0.1673    9.3733 C   0  0  0  0  0  0  0  0  0  0  0  0
   -3.4436   -0.6482    8.9150 C   0  0  0  0  0  0  0  0  0  0  0  0
   -2.8711   -1.7003    8.1753 C   0  0  0  0  0  0  0  0  0  0  0  0
   -1.4617   -1.5592    8.4654 N   0  0  0  0  0  0  0  0  0  0  0  0
    7.3704   -0.5629   12.6638 C   0  0  0  0  0  0  0  0  0  0  0  0
    8.7033    0.2727   13.0593 C   0  0  0  0  0  0  0  0  0  0  0  0
    9.7394    0.2799   14.1032 C   0  0  0  0  0  0  0  0  0  0  0  0
    9.7131   -0.6729   15.0366 C   0  0  0  0  0  0  0  0  0  0  0  0
    8.7064   -1.5529   14.7893 C   0  0  0  0  0  0  0  0  0  0  0  0
    7.6825   -1.4553   13.7028 C   0  0  0  0  0  0  0  0  0  0  0  0
    6.9667   -3.2854   15.1961 H   0  0  0  0  0  0  0  0  0  0  0  0
    5.2146   -3.0084   14.8933 H   0  0  0  0  0  0  0  0  0  0  0  0
    6.4378   -1.7947   15.4432 H   0  0  0  0  0  0  0  0  0  0  0  0
    5.3161   -2.9760   12.3402 H   0  0  0  0  0  0  0  0  0  0  0  0
    1.7713   -0.2421    9.7769 H   0  0  0  0  0  0  0  0  0  0  0  0
    1.9771   -1.9289   10.5267 H   0  0  0  0  0  0  0  0  0  0  0  0
    0.4941   -1.8520    9.4892 H   0  0  0  0  0  0  0  0  0  0  0  0
   -2.4902    0.4617   10.1894 H   0  0  0  0  0  0  0  0  0  0  0  0
   -1.8881    0.5677    8.5905 H   0  0  0  0  0  0  0  0  0  0  0  0
   -4.2242   -0.9253    9.6134 H   0  0  0  0  0  0  0  0  0  0  0  0
   -3.9965    0.0746    8.3173 H   0  0  0  0  0  0  0  0  0  0  0  0
   -3.2708   -2.7007    8.2373 H   0  0  0  0  0  0  0  0  0  0  0  0
   -3.0500   -1.3111    7.1814 H   0  0  0  0  0  0  0  0  0  0  0  0
   -1.0439   -1.1235    7.6456 H   0  0  0  0  0  0  0  0  0  0  0  0
    9.0761    1.1343   12.5565 H   0  0  0  0  0  0  0  0  0  0  0  0
   10.5379    1.0170   14.0775 H   0  0  0  0  0  0  0  0  0  0  0  0
   10.4978   -0.8211   15.7595 H   0  0  0  0  0  0  0  0  0  0  0  0
    8.7693   -2.5145   15.2469 H   0  0  0  0  0  0  0  0  0  0  0  0
  1  2  1  0
  2  3  1  0
  3  4  2  0
  4  5  1  0
  5  6  1  0
  5  7  1  0
  5  8  1  0
  8  9  1  0
  9 10  1  0
 10 11  1  0
 11 12  1  0
 12 13  1  0
  4 14  1  0
 14 15  2  0
 15 16  1  0
 16 17  2  0
 17 18  1  0
 18 19  2  0
 19  2  1  0
 13  9  1  0
 19 14  1  0
  1 20  1  0
  1 21  1  0
  1 22  1  0
  3 23  1  0
  8 24  1  0
  8 25  1  0
  9 26  1  0
 10 27  1  0
 10 28  1  0
 11 29  1  0
 11 30  1  0
 12 31  1  0
 12 32  1  0
 13 33  1  0
 15 34  1  0
 16 35  1  0
 17 36  1  0
 18 37  1  0
M  END
>  <Energy>  (99) 
1113.0286414572749

>  <compound_id>  (99) 
4748

>  <target_id>  (99) 
1

>  <reference_id>  (99) 
93

>  <inspiration_ids>  (99) 
[93, 95]

>  <energy_score>  (99) 
1044.2753145522065

>  <distance_score>  (99) 
7.120720528080203

>  <path>  (99) 
/opt/xchem-fragalysis-2/maxwin/BulkDock/SCRATCH/511018/C4748-P93/C4748-P93.minimised.mol

>  <scratch_subdir>  (99) 
/opt/xchem-fragalysis-2/maxwin/BulkDock/SCRATCH/511018/C4748-P93

>  <fragmenstein_runtime>  (99) 
8.051356792449951

>  <fragmenstein_outcome>  (99) 
too moved

>  <fragmenstein_mode>  (99) 
expansion

>  <fragmenstein_error>  (99) 


$$$$
C4748-P95
     RDKit          3D

 37 39  0  0  0  0  0  0  0  0999 V2000
    8.5173    0.2213   13.2786 C   0  0  0  0  0  0  0  0  0  0  0  0
    7.3620   -0.7630   12.9933 N   0  0  0  0  0  0  0  0  0  0  0  0
    6.6578   -1.2381   11.8562 C   0  0  0  0  0  0  0  0  0  0  0  0
    5.5770   -2.3296   12.0215 C   0  0  0  0  0  0  0  0  0  0  0  0
    3.9405   -2.9358   10.8984 C   0  0  0  0  0  0  0  0  0  0  0  0
    3.8233   -4.1998   11.4205 F   0  0  0  0  0  0  0  0  0  0  0  0
    2.9357   -2.0890   11.1717 F   0  0  0  0  0  0  0  0  0  0  0  0
    2.8604   -2.8759    9.0703 C   0  0  0  0  0  0  0  0  0  0  0  0
    0.8345   -2.2374    8.4643 C   0  0  0  0  0  0  0  0  0  0  0  0
   -1.3223   -1.7070    8.6372 C   0  0  0  0  0  0  0  0  0  0  0  0
   -2.1188   -1.5380    7.2404 C   0  0  0  0  0  0  0  0  0  0  0  0
   -0.9910   -1.3265    6.2792 C   0  0  0  0  0  0  0  0  0  0  0  0
    0.5612   -1.9340    6.7038 N   0  0  0  0  0  0  0  0  0  0  0  0
    6.2768   -2.4302   13.7985 C   0  0  0  0  0  0  0  0  0  0  0  0
    7.7832   -2.7299   14.2482 C   0  0  0  0  0  0  0  0  0  0  0  0
    8.8964   -2.2767   15.0388 C   0  0  0  0  0  0  0  0  0  0  0  0
    8.6443   -1.1642   15.7372 C   0  0  0  0  0  0  0  0  0  0  0  0
    7.3410   -0.7912   15.5884 C   0  0  0  0  0  0  0  0  0  0  0  0
    6.7168   -1.2402   14.2605 C   0  0  0  0  0  0  0  0  0  0  0  0
    8.3411    0.8413   14.1588 H   0  0  0  0  0  0  0  0  0  0  0  0
    9.4412   -0.2077   13.6795 H   0  0  0  0  0  0  0  0  0  0  0  0
    8.7456    0.8288   12.4374 H   0  0  0  0  0  0  0  0  0  0  0  0
    6.9575   -0.7416   10.9541 H   0  0  0  0  0  0  0  0  0  0  0  0
    3.4879   -2.8391    8.2443 H   0  0  0  0  0  0  0  0  0  0  0  0
    2.8285   -3.8910    8.7019 H   0  0  0  0  0  0  0  0  0  0  0  0
    1.1446   -1.3426    9.1407 H   0  0  0  0  0  0  0  0  0  0  0  0
   -2.1480   -2.3741    8.9270 H   0  0  0  0  0  0  0  0  0  0  0  0
   -1.6941   -0.7785    8.9633 H   0  0  0  0  0  0  0  0  0  0  0  0
   -2.7852   -0.6803    7.3282 H   0  0  0  0  0  0  0  0  0  0  0  0
   -2.7903   -2.3912    7.0644 H   0  0  0  0  0  0  0  0  0  0  0  0
   -0.7878   -1.5170    5.2096 H   0  0  0  0  0  0  0  0  0  0  0  0
   -1.5579   -0.7078    5.5858 H   0  0  0  0  0  0  0  0  0  0  0  0
    1.2991   -1.1994    6.8089 H   0  0  0  0  0  0  0  0  0  0  0  0
    8.2287   -2.6375   13.2938 H   0  0  0  0  0  0  0  0  0  0  0  0
    9.8996   -2.6600   14.8702 H   0  0  0  0  0  0  0  0  0  0  0  0
    9.3751   -0.6086   16.2978 H   0  0  0  0  0  0  0  0  0  0  0  0
    7.0356    0.1545   16.0441 H   0  0  0  0  0  0  0  0  0  0  0  0
  1  2  1  0
  2  3  1  0
  3  4  2  0
  4  5  1  0
  5  6  1  0
  5  7  1  0
  5  8  1  0
  8  9  1  0
  9 10  1  0
 10 11  1  0
 11 12  1  0
 12 13  1  0
  4 14  1  0
 14 15  2  0
 15 16  1  0
 16 17  2  0
 17 18  1  0
 18 19  2  0
 19  2  1  0
 13  9  1  0
 19 14  1  0
  1 20  1  0
  1 21  1  0
  1 22  1  0
  3 23  1  0
  8 24  1  0
  8 25  1  0
  9 26  1  0
 10 27  1  0
 10 28  1  0
 11 29  1  0
 11 30  1  0
 12 31  1  0
 12 32  1  0
 13 33  1  0
 15 34  1  0
 16 35  1  0
 17 36  1  0
 18 37  1  0
M  END
>  <Energy>  (100) 
1114.7991443466231

>  <compound_id>  (100) 
4748

>  <target_id>  (100) 
1

>  <reference_id>  (100) 
95

>  <inspiration_ids>  (100) 
[93, 95]

>  <energy_score>  (100) 
1046.0458174415746

>  <distance_score>  (100) 
7.761252300615471

>  <path>  (100) 
/opt/xchem-fragalysis-2/maxwin/BulkDock/SCRATCH/511018/C4748-P95/C4748-P95.minimised.mol

>  <scratch_subdir>  (100) 
/opt/xchem-fragalysis-2/maxwin/BulkDock/SCRATCH/511018/C4748-P95

>  <fragmenstein_runtime>  (100) 
10.07903003692627

>  <fragmenstein_outcome>  (100) 
too moved

>  <fragmenstein_mode>  (100) 
expansion

>  <fragmenstein_error>  (100) 


$$$$
C4751-P93
     RDKit          3D

 36 39  0  0  0  0  0  0  0  0999 V2000
    7.2019   -2.5005   14.8778 C   0  0  0  0  0  0  0  0  0  0  0  0
    7.9283   -2.6236   13.8160 C   0  0  0  0  0  0  0  0  0  0  0  0
    7.2090   -2.1870   12.3955 C   0  0  0  0  0  0  0  0  0  0  0  0
    5.7545   -2.4344   12.5010 C   0  0  0  0  0  0  0  0  0  0  0  0
    4.0198   -1.9561   11.6230 C   0  0  0  0  0  0  0  0  0  0  0  0
    2.3859   -2.6153   10.5594 C   0  0  0  0  0  0  0  0  0  0  0  0
    0.7573   -1.7985    9.4862 C   0  0  0  0  0  0  0  0  0  0  0  0
   -1.3256   -1.1148    9.0836 C   0  0  0  0  0  0  0  0  0  0  0  0
   -1.8759   -1.4958    7.6575 C   0  0  0  0  0  0  0  0  0  0  0  0
   -0.5836   -1.4190    6.6795 C   0  0  0  0  0  0  0  0  0  0  0  0
    1.0656   -1.9757    7.5774 N   0  0  0  0  0  0  0  0  0  0  0  0
    2.7439   -4.0026   11.7560 C   0  0  0  0  0  0  0  0  0  0  0  0
    3.5729   -4.4969   10.7458 O   0  0  0  0  0  0  0  0  0  0  0  0
    2.9321   -3.7297    9.6965 C   0  0  0  0  0  0  0  0  0  0  0  0
    4.6762   -0.6017   11.3247 C   0  0  0  0  0  0  0  0  0  0  0  0
    5.7740   -0.5028   12.3195 N   0  0  0  0  0  0  0  0  0  0  0  0
    6.2077   -1.3249   13.2850 C   0  0  0  0  0  0  0  0  0  0  0  0
    7.0321   -1.2770   14.5240 C   0  0  0  0  0  0  0  0  0  0  0  0
    6.2542   -3.0464   14.9076 H   0  0  0  0  0  0  0  0  0  0  0  0
    8.9773   -2.6600   14.1198 H   0  0  0  0  0  0  0  0  0  0  0  0
    7.5430   -1.8330   11.4384 H   0  0  0  0  0  0  0  0  0  0  0  0
    1.1674   -0.8238    9.8189 H   0  0  0  0  0  0  0  0  0  0  0  0
   -2.1971   -1.7172    9.3025 H   0  0  0  0  0  0  0  0  0  0  0  0
   -1.7463   -0.1018    9.1220 H   0  0  0  0  0  0  0  0  0  0  0  0
   -2.4661   -2.4289    7.6575 H   0  0  0  0  0  0  0  0  0  0  0  0
   -2.6763   -0.7748    7.4036 H   0  0  0  0  0  0  0  0  0  0  0  0
   -1.0043   -0.4720    6.8182 H   0  0  0  0  0  0  0  0  0  0  0  0
   -0.4250   -1.0269    5.6700 H   0  0  0  0  0  0  0  0  0  0  0  0
    1.2610   -2.9666    7.5088 H   0  0  0  0  0  0  0  0  0  0  0  0
    3.2773   -3.7388   12.6696 H   0  0  0  0  0  0  0  0  0  0  0  0
    2.1489   -4.7961   12.1660 H   0  0  0  0  0  0  0  0  0  0  0  0
    2.1411   -4.2359    9.0905 H   0  0  0  0  0  0  0  0  0  0  0  0
    3.5687   -3.5166    8.8497 H   0  0  0  0  0  0  0  0  0  0  0  0
    4.2630    0.2971   10.8475 H   0  0  0  0  0  0  0  0  0  0  0  0
    5.7293    0.3969   12.6962 H   0  0  0  0  0  0  0  0  0  0  0  0
    7.8951   -0.5855   14.5400 H   0  0  0  0  0  0  0  0  0  0  0  0
  1  2  2  0
  2  3  1  0
  3  4  2  0
  4  5  1  0
  5  6  1  0
  6  7  1  0
  7  8  1  0
  8  9  1  0
  9 10  1  0
 10 11  1  0
  6 12  1  0
 12 13  1  0
 13 14  1  0
  5 15  2  0
 15 16  1  0
 16 17  1  0
 17 18  2  0
 18  1  1  0
 17  4  1  0
 14  6  1  0
 11  7  1  0
  1 19  1  0
  2 20  1  0
  3 21  1  0
  7 22  1  0
  8 23  1  0
  8 24  1  0
  9 25  1  0
  9 26  1  0
 10 27  1  0
 10 28  1  0
 11 29  1  0
 12 30  1  0
 12 31  1  0
 14 32  1  0
 14 33  1  0
 15 34  1  0
 16 35  1  0
 18 36  1  0
M  END
>  <Energy>  (101) 
1139.8166814233152

>  <compound_id>  (101) 
4751

>  <target_id>  (101) 
1

>  <reference_id>  (101) 
93

>  <inspiration_ids>  (101) 
[93, 95]

>  <energy_score>  (101) 
1045.051481106308

>  <distance_score>  (101) 
8.579481442217062

>  <path>  (101) 
/opt/xchem-fragalysis-2/maxwin/BulkDock/SCRATCH/511018/C4751-P93/C4751-P93.minimised.mol

>  <scratch_subdir>  (101) 
/opt/xchem-fragalysis-2/maxwin/BulkDock/SCRATCH/511018/C4751-P93

>  <fragmenstein_runtime>  (101) 
6.789098501205444

>  <fragmenstein_outcome>  (101) 
too moved

>  <fragmenstein_mode>  (101) 
expansion

>  <fragmenstein_error>  (101) 


$$$$
C4751-P95
     RDKit          3D

 36 39  0  0  0  0  0  0  0  0999 V2000
    7.9647   -0.9297   14.1640 C   0  0  0  0  0  0  0  0  0  0  0  0
    7.6756   -0.4295   12.9197 C   0  0  0  0  0  0  0  0  0  0  0  0
    6.8456   -1.0407   11.9262 C   0  0  0  0  0  0  0  0  0  0  0  0
    5.8740   -1.9798   12.2895 C   0  0  0  0  0  0  0  0  0  0  0  0
    4.2081   -2.6617   11.6627 C   0  0  0  0  0  0  0  0  0  0  0  0
    3.0942   -2.4875    9.8734 C   0  0  0  0  0  0  0  0  0  0  0  0
    1.3862   -1.5766    9.0450 C   0  0  0  0  0  0  0  0  0  0  0  0
    0.1583   -1.2599    9.8538 C   0  0  0  0  0  0  0  0  0  0  0  0
   -1.6310   -1.3500    8.8430 C   0  0  0  0  0  0  0  0  0  0  0  0
   -1.3625   -1.4774    7.1667 C   0  0  0  0  0  0  0  0  0  0  0  0
    0.5890   -2.1235    7.3235 N   0  0  0  0  0  0  0  0  0  0  0  0
    3.8737   -4.1835   10.1399 C   0  0  0  0  0  0  0  0  0  0  0  0
    4.3671   -4.1443    8.6949 O   0  0  0  0  0  0  0  0  0  0  0  0
    3.1606   -3.4352    8.4573 C   0  0  0  0  0  0  0  0  0  0  0  0
    3.6991   -3.2080   12.9313 C   0  0  0  0  0  0  0  0  0  0  0  0
    4.8532   -2.7309   14.2674 N   0  0  0  0  0  0  0  0  0  0  0  0
    6.0905   -2.2722   13.7507 C   0  0  0  0  0  0  0  0  0  0  0  0
    7.2608   -2.0168   14.4790 C   0  0  0  0  0  0  0  0  0  0  0  0
    8.7935   -0.5579   14.7483 H   0  0  0  0  0  0  0  0  0  0  0  0
    8.3406    0.3724   12.6185 H   0  0  0  0  0  0  0  0  0  0  0  0
    6.9383   -0.6591   10.9275 H   0  0  0  0  0  0  0  0  0  0  0  0
    1.6373   -0.5091    8.8520 H   0  0  0  0  0  0  0  0  0  0  0  0
    0.2871   -0.3149    9.6067 H   0  0  0  0  0  0  0  0  0  0  0  0
    0.0932   -1.3608   10.9556 H   0  0  0  0  0  0  0  0  0  0  0  0
   -2.3222   -2.1822    8.9665 H   0  0  0  0  0  0  0  0  0  0  0  0
   -2.3139   -0.4813    8.9424 H   0  0  0  0  0  0  0  0  0  0  0  0
   -1.7973   -0.4901    7.1826 H   0  0  0  0  0  0  0  0  0  0  0  0
   -2.1775   -2.2016    7.0009 H   0  0  0  0  0  0  0  0  0  0  0  0
    1.1567   -1.4105    6.8754 H   0  0  0  0  0  0  0  0  0  0  0  0
    3.2571   -4.9654   10.6050 H   0  0  0  0  0  0  0  0  0  0  0  0
    4.6402   -4.4407   10.8400 H   0  0  0  0  0  0  0  0  0  0  0  0
    3.0841   -2.9043    7.5403 H   0  0  0  0  0  0  0  0  0  0  0  0
    2.3568   -4.1159    8.1961 H   0  0  0  0  0  0  0  0  0  0  0  0
    2.8540   -3.7459   13.3420 H   0  0  0  0  0  0  0  0  0  0  0  0
    4.7442   -3.1435   15.1827 H   0  0  0  0  0  0  0  0  0  0  0  0
    7.5777   -2.5576   15.3347 H   0  0  0  0  0  0  0  0  0  0  0  0
  1  2  2  0
  2  3  1  0
  3  4  2  0
  4  5  1  0
  5  6  1  0
  6  7  1  0
  7  8  1  0
  8  9  1  0
  9 10  1  0
 10 11  1  0
  6 12  1  0
 12 13  1  0
 13 14  1  0
  5 15  2  0
 15 16  1  0
 16 17  1  0
 17 18  2  0
 18  1  1  0
 17  4  1  0
 14  6  1  0
 11  7  1  0
  1 19  1  0
  2 20  1  0
  3 21  1  0
  7 22  1  0
  8 23  1  0
  8 24  1  0
  9 25  1  0
  9 26  1  0
 10 27  1  0
 10 28  1  0
 11 29  1  0
 12 30  1  0
 12 31  1  0
 14 32  1  0
 14 33  1  0
 15 34  1  0
 16 35  1  0
 18 36  1  0
M  END
>  <Energy>  (102) 
800.44084379359288

>  <compound_id>  (102) 
4751

>  <target_id>  (102) 
1

>  <reference_id>  (102) 
95

>  <inspiration_ids>  (102) 
[93, 95]

>  <energy_score>  (102) 
705.6756434766031

>  <distance_score>  (102) 
8.554035408432206

>  <path>  (102) 
/opt/xchem-fragalysis-2/maxwin/BulkDock/SCRATCH/511018/C4751-P95/C4751-P95.minimised.mol

>  <scratch_subdir>  (102) 
/opt/xchem-fragalysis-2/maxwin/BulkDock/SCRATCH/511018/C4751-P95

>  <fragmenstein_runtime>  (102) 
8.900391101837158

>  <fragmenstein_outcome>  (102) 
too moved

>  <fragmenstein_mode>  (102) 
expansion

>  <fragmenstein_error>  (102) 


$$$$
C4752-P93
     RDKit          3D

 39 42  0  0  0  0  0  0  0  0999 V2000
    2.1765   -5.4869   14.4047 C   0  0  0  0  0  0  0  0  0  0  0  0
    2.6517   -4.7811   13.2233 N   0  0  0  0  0  0  0  0  0  0  0  0
    2.6930   -5.4795   11.9115 C   0  0  0  0  0  0  0  0  0  0  0  0
    2.5265   -4.6293   10.6069 C   0  0  0  0  0  0  0  0  0  0  0  0
    0.7856   -4.8508    9.0718 C   0  0  0  0  0  0  0  0  0  0  0  0
   -0.6647   -5.6822    7.6316 C   0  0  0  0  0  0  0  0  0  0  0  0
   -2.6604   -5.4264    7.0167 C   0  0  0  0  0  0  0  0  0  0  0  0
   -4.0089   -4.1058    7.0491 C   0  0  0  0  0  0  0  0  0  0  0  0
   -3.1336   -3.3865    7.8562 C   0  0  0  0  0  0  0  0  0  0  0  0
   -2.2257   -4.4298    7.0467 N   0  0  0  0  0  0  0  0  0  0  0  0
    1.7832   -3.8470    8.3960 C   0  0  0  0  0  0  0  0  0  0  0  0
    2.0517   -5.0397    7.7845 O   0  0  0  0  0  0  0  0  0  0  0  0
    0.7617   -5.6631    7.9792 C   0  0  0  0  0  0  0  0  0  0  0  0
    3.5729   -3.4744   11.7776 C   0  0  0  0  0  0  0  0  0  0  0  0
    5.1945   -3.0023   12.2551 C   0  0  0  0  0  0  0  0  0  0  0  0
    6.3745   -2.3748   13.2895 C   0  0  0  0  0  0  0  0  0  0  0  0
    6.1425   -2.5577   14.5385 C   0  0  0  0  0  0  0  0  0  0  0  0
    4.8555   -3.1423   14.5488 C   0  0  0  0  0  0  0  0  0  0  0  0
    3.4850   -3.6340   13.3116 C   0  0  0  0  0  0  0  0  0  0  0  0
    1.0850   -5.4634   14.3907 H   0  0  0  0  0  0  0  0  0  0  0  0
    2.5377   -6.5177   14.3746 H   0  0  0  0  0  0  0  0  0  0  0  0
    2.5400   -4.9932   15.3073 H   0  0  0  0  0  0  0  0  0  0  0  0
    2.3936   -6.5201   12.0193 H   0  0  0  0  0  0  0  0  0  0  0  0
   -1.0231   -6.7244    8.0508 H   0  0  0  0  0  0  0  0  0  0  0  0
   -2.6773   -5.7781    5.8843 H   0  0  0  0  0  0  0  0  0  0  0  0
   -3.1819   -5.9564    7.8733 H   0  0  0  0  0  0  0  0  0  0  0  0
   -4.9648   -4.0317    7.5593 H   0  0  0  0  0  0  0  0  0  0  0  0
   -4.3682   -3.7453    6.0766 H   0  0  0  0  0  0  0  0  0  0  0  0
   -3.1167   -3.6492    8.8760 H   0  0  0  0  0  0  0  0  0  0  0  0
   -3.0303   -2.3182    7.6579 H   0  0  0  0  0  0  0  0  0  0  0  0
   -1.7263   -3.5443    6.9371 H   0  0  0  0  0  0  0  0  0  0  0  0
    1.4181   -2.9005    8.0207 H   0  0  0  0  0  0  0  0  0  0  0  0
    2.7324   -3.5596    8.8196 H   0  0  0  0  0  0  0  0  0  0  0  0
    0.4655   -6.3804    8.9730 H   0  0  0  0  0  0  0  0  0  0  0  0
    0.6267   -6.7549    7.3048 H   0  0  0  0  0  0  0  0  0  0  0  0
    5.4551   -1.6770   12.1943 H   0  0  0  0  0  0  0  0  0  0  0  0
    7.2408   -1.8717   12.8693 H   0  0  0  0  0  0  0  0  0  0  0  0
    6.9071   -2.3510   15.2507 H   0  0  0  0  0  0  0  0  0  0  0  0
    4.6757   -3.6559   15.5336 H   0  0  0  0  0  0  0  0  0  0  0  0
  1  2  1  0
  2  3  1  0
  3  4  2  0
  4  5  1  0
  5  6  1  0
  6  7  1  0
  7  8  1  0
  8  9  1  0
  9 10  1  0
  5 11  1  0
 11 12  1  0
 12 13  1  0
  4 14  1  0
 14 15  2  0
 15 16  1  0
 16 17  2  0
 17 18  1  0
 18 19  2  0
 19  2  1  0
 13  5  1  0
 19 14  1  0
 10  6  1  0
  1 20  1  0
  1 21  1  0
  1 22  1  0
  3 23  1  0
  6 24  1  0
  7 25  1  0
  7 26  1  0
  8 27  1  0
  8 28  1  0
  9 29  1  0
  9 30  1  0
 10 31  1  0
 11 32  1  0
 11 33  1  0
 13 34  1  0
 13 35  1  0
 15 36  1  0
 16 37  1  0
 17 38  1  0
 18 39  1  0
M  END
>  <Energy>  (103) 
1638.5162753366428

>  <compound_id>  (103) 
4752

>  <target_id>  (103) 
1

>  <reference_id>  (103) 
93

>  <inspiration_ids>  (103) 
[93, 95]

>  <energy_score>  (103) 
1502.8405971795705

>  <distance_score>  (103) 
9.031056384335859

>  <path>  (103) 
/opt/xchem-fragalysis-2/maxwin/BulkDock/SCRATCH/511018/C4752-P93/C4752-P93.minimised.mol

>  <scratch_subdir>  (103) 
/opt/xchem-fragalysis-2/maxwin/BulkDock/SCRATCH/511018/C4752-P93

>  <fragmenstein_runtime>  (103) 
7.52140736579895

>  <fragmenstein_outcome>  (103) 
too moved

>  <fragmenstein_mode>  (103) 
expansion

>  <fragmenstein_error>  (103) 


$$$$
C4752-P95
     RDKit          3D

 39 42  0  0  0  0  0  0  0  0999 V2000
    6.3698   -2.2901   14.6055 C   0  0  0  0  0  0  0  0  0  0  0  0
    6.9079   -1.7155   13.4746 N   0  0  0  0  0  0  0  0  0  0  0  0
    6.2741   -1.3999   12.2798 C   0  0  0  0  0  0  0  0  0  0  0  0
    5.9313   -0.0868   12.4546 C   0  0  0  0  0  0  0  0  0  0  0  0
    4.3663    1.5173   12.1402 C   0  0  0  0  0  0  0  0  0  0  0  0
    2.6058    1.8212   12.6873 C   0  0  0  0  0  0  0  0  0  0  0  0
    1.8105    2.0449   14.0439 C   0  0  0  0  0  0  0  0  0  0  0  0
    1.1239    3.4038   14.0837 C   0  0  0  0  0  0  0  0  0  0  0  0
    0.8727    3.6738   12.6466 C   0  0  0  0  0  0  0  0  0  0  0  0
    2.0872    3.1260   12.1131 N   0  0  0  0  0  0  0  0  0  0  0  0
    4.6642    3.1771   11.6594 C   0  0  0  0  0  0  0  0  0  0  0  0
    3.8893    3.0776   10.4545 O   0  0  0  0  0  0  0  0  0  0  0  0
    3.8724    1.6410   10.4757 C   0  0  0  0  0  0  0  0  0  0  0  0
    7.7999    0.0194   12.8434 C   0  0  0  0  0  0  0  0  0  0  0  0
    9.0555    0.8908   13.0002 C   0  0  0  0  0  0  0  0  0  0  0  0
   10.1103    0.7536   13.9437 C   0  0  0  0  0  0  0  0  0  0  0  0
   10.0755   -0.2666   14.8516 C   0  0  0  0  0  0  0  0  0  0  0  0
    9.0125   -1.1426   14.7830 C   0  0  0  0  0  0  0  0  0  0  0  0
    7.9837   -0.9754   13.7998 C   0  0  0  0  0  0  0  0  0  0  0  0
    7.0540   -3.0441   14.9056 H   0  0  0  0  0  0  0  0  0  0  0  0
    6.5669   -1.4930   15.3243 H   0  0  0  0  0  0  0  0  0  0  0  0
    5.3338   -2.5741   14.5863 H   0  0  0  0  0  0  0  0  0  0  0  0
    6.8684   -1.7139   11.4368 H   0  0  0  0  0  0  0  0  0  0  0  0
    2.1530    0.9372   12.2629 H   0  0  0  0  0  0  0  0  0  0  0  0
    0.9605    1.3411   14.0453 H   0  0  0  0  0  0  0  0  0  0  0  0
    2.2931    1.9212   15.0086 H   0  0  0  0  0  0  0  0  0  0  0  0
    0.2066    3.3909   14.6806 H   0  0  0  0  0  0  0  0  0  0  0  0
    1.8004    4.1520   14.5164 H   0  0  0  0  0  0  0  0  0  0  0  0
   -0.0317    3.1801   12.2980 H   0  0  0  0  0  0  0  0  0  0  0  0
    0.7818    4.7444   12.4431 H   0  0  0  0  0  0  0  0  0  0  0  0
    2.2592    3.2824   11.1205 H   0  0  0  0  0  0  0  0  0  0  0  0
    4.2684    3.9315   12.3546 H   0  0  0  0  0  0  0  0  0  0  0  0
    5.6031    3.6367   11.3381 H   0  0  0  0  0  0  0  0  0  0  0  0
    2.8782    1.2892   10.2482 H   0  0  0  0  0  0  0  0  0  0  0  0
    4.5045    1.3496    9.6414 H   0  0  0  0  0  0  0  0  0  0  0  0
    9.2764    1.7403   12.3699 H   0  0  0  0  0  0  0  0  0  0  0  0
   10.9515    1.4410   13.9206 H   0  0  0  0  0  0  0  0  0  0  0  0
   10.9047   -0.4418   15.5237 H   0  0  0  0  0  0  0  0  0  0  0  0
    9.0391   -2.0510   15.3490 H   0  0  0  0  0  0  0  0  0  0  0  0
  1  2  1  0
  2  3  1  0
  3  4  2  0
  4  5  1  0
  5  6  1  0
  6  7  1  0
  7  8  1  0
  8  9  1  0
  9 10  1  0
  5 11  1  0
 11 12  1  0
 12 13  1  0
  4 14  1  0
 14 15  2  0
 15 16  1  0
 16 17  2  0
 17 18  1  0
 18 19  2  0
 19  2  1  0
 13  5  1  0
 19 14  1  0
 10  6  1  0
  1 20  1  0
  1 21  1  0
  1 22  1  0
  3 23  1  0
  6 24  1  0
  7 25  1  0
  7 26  1  0
  8 27  1  0
  8 28  1  0
  9 29  1  0
  9 30  1  0
 10 31  1  0
 11 32  1  0
 11 33  1  0
 13 34  1  0
 13 35  1  0
 15 36  1  0
 16 37  1  0
 17 38  1  0
 18 39  1  0
M  END
>  <Energy>  (104) 
501.6158657073662

>  <compound_id>  (104) 
4752

>  <target_id>  (104) 
1

>  <reference_id>  (104) 
95

>  <inspiration_ids>  (104) 
[93, 95]

>  <energy_score>  (104) 
365.94018755027776

>  <distance_score>  (104) 
10.04102011196354

>  <path>  (104) 
/opt/xchem-fragalysis-2/maxwin/BulkDock/SCRATCH/511018/C4752-P95/C4752-P95.minimised.mol

>  <scratch_subdir>  (104) 
/opt/xchem-fragalysis-2/maxwin/BulkDock/SCRATCH/511018/C4752-P95

>  <fragmenstein_runtime>  (104) 
11.730882406234741

>  <fragmenstein_outcome>  (104) 
too moved

>  <fragmenstein_mode>  (104) 
expansion

>  <fragmenstein_error>  (104) 


$$$$
C4753-P93
     RDKit          3D

 39 42  0  0  0  0  0  0  0  0999 V2000
    8.6705   -2.9301   14.6981 C   0  0  0  0  0  0  0  0  0  0  0  0
    7.3232   -2.6257   13.6968 C   0  0  0  0  0  0  0  0  0  0  0  0
    7.3074   -1.4586   12.9183 N   0  0  0  0  0  0  0  0  0  0  0  0
    7.8495   -0.7854   13.9478 C   0  0  0  0  0  0  0  0  0  0  0  0
    9.0002    0.0158   14.2809 C   0  0  0  0  0  0  0  0  0  0  0  0
    9.1507    0.4694   15.5837 C   0  0  0  0  0  0  0  0  0  0  0  0
    8.1588    0.1728   16.4871 C   0  0  0  0  0  0  0  0  0  0  0  0
    7.0934   -0.7201   16.1272 C   0  0  0  0  0  0  0  0  0  0  0  0
    6.8461   -1.3696   14.7760 C   0  0  0  0  0  0  0  0  0  0  0  0
    5.9054   -2.6717   13.9511 C   0  0  0  0  0  0  0  0  0  0  0  0
    4.2331   -3.1524   12.5865 C   0  0  0  0  0  0  0  0  0  0  0  0
    3.1806   -2.2182   11.3660 C   0  0  0  0  0  0  0  0  0  0  0  0
    2.5421   -0.3787   11.7442 C   0  0  0  0  0  0  0  0  0  0  0  0
    1.1383   -0.6432   12.1717 C   0  0  0  0  0  0  0  0  0  0  0  0
    0.8152   -0.9562   10.7092 C   0  0  0  0  0  0  0  0  0  0  0  0
    1.7018   -1.9788   10.3716 N   0  0  0  0  0  0  0  0  0  0  0  0
    4.0316   -4.5500   11.7685 C   0  0  0  0  0  0  0  0  0  0  0  0
    2.7568   -4.8178   12.3477 O   0  0  0  0  0  0  0  0  0  0  0  0
    2.9921   -3.9362   13.4297 C   0  0  0  0  0  0  0  0  0  0  0  0
    8.6135   -3.9090   15.1100 H   0  0  0  0  0  0  0  0  0  0  0  0
    8.7621   -2.2218   15.5057 H   0  0  0  0  0  0  0  0  0  0  0  0
    9.6805   -2.8496   14.2931 H   0  0  0  0  0  0  0  0  0  0  0  0
    7.5625   -1.3774   11.9491 H   0  0  0  0  0  0  0  0  0  0  0  0
    9.7366    0.2698   13.5278 H   0  0  0  0  0  0  0  0  0  0  0  0
    9.9882    1.1058   15.8490 H   0  0  0  0  0  0  0  0  0  0  0  0
    8.1686    0.6104   17.4820 H   0  0  0  0  0  0  0  0  0  0  0  0
    6.3314   -0.8156   16.9065 H   0  0  0  0  0  0  0  0  0  0  0  0
    3.3264   -2.8545   10.5056 H   0  0  0  0  0  0  0  0  0  0  0  0
    2.6135    0.3504   12.5878 H   0  0  0  0  0  0  0  0  0  0  0  0
    3.0644    0.3419   11.0566 H   0  0  0  0  0  0  0  0  0  0  0  0
    0.2867   -0.1841   12.6890 H   0  0  0  0  0  0  0  0  0  0  0  0
    1.2170   -1.2512   13.0914 H   0  0  0  0  0  0  0  0  0  0  0  0
   -0.2589   -0.9726   10.5670 H   0  0  0  0  0  0  0  0  0  0  0  0
    1.1422   -0.3035    9.9188 H   0  0  0  0  0  0  0  0  0  0  0  0
    1.5401   -2.2403    9.4034 H   0  0  0  0  0  0  0  0  0  0  0  0
    4.5953   -5.4525   11.8633 H   0  0  0  0  0  0  0  0  0  0  0  0
    3.8806   -4.5235   10.7060 H   0  0  0  0  0  0  0  0  0  0  0  0
    2.1012   -3.3791   13.6497 H   0  0  0  0  0  0  0  0  0  0  0  0
    3.1514   -4.5355   14.3324 H   0  0  0  0  0  0  0  0  0  0  0  0
  1  2  1  0
  2  3  1  0
  3  4  1  0
  4  5  2  0
  5  6  1  0
  6  7  2  0
  7  8  1  0
  8  9  2  0
  9 10  1  0
 10 11  1  0
 11 12  1  0
 12 13  1  0
 13 14  1  0
 14 15  1  0
 15 16  1  0
 11 17  1  0
 17 18  1  0
 18 19  1  0
 10  2  2  0
 19 11  1  0
  9  4  1  0
 16 12  1  0
  1 20  1  0
  1 21  1  0
  1 22  1  0
  3 23  1  0
  5 24  1  0
  6 25  1  0
  7 26  1  0
  8 27  1  0
 12 28  1  0
 13 29  1  0
 13 30  1  0
 14 31  1  0
 14 32  1  0
 15 33  1  0
 15 34  1  0
 16 35  1  0
 17 36  1  0
 17 37  1  0
 19 38  1  0
 19 39  1  0
M  END
>  <Energy>  (105) 
748.22594017212441

>  <compound_id>  (105) 
4753

>  <target_id>  (105) 
1

>  <reference_id>  (105) 
93

>  <inspiration_ids>  (105) 
[93, 95]

>  <energy_score>  (105) 
626.3862003803777

>  <distance_score>  (105) 
9.13666438299681

>  <path>  (105) 
/opt/xchem-fragalysis-2/maxwin/BulkDock/SCRATCH/511018/C4753-P93/C4753-P93.minimised.mol

>  <scratch_subdir>  (105) 
/opt/xchem-fragalysis-2/maxwin/BulkDock/SCRATCH/511018/C4753-P93

>  <fragmenstein_runtime>  (105) 
8.48802900314331

>  <fragmenstein_outcome>  (105) 
too moved

>  <fragmenstein_mode>  (105) 
expansion

>  <fragmenstein_error>  (105) 


$$$$
C4753-P95
     RDKit          3D

 39 42  0  0  0  0  0  0  0  0999 V2000
    8.3616   -2.8153   14.7792 C   0  0  0  0  0  0  0  0  0  0  0  0
    6.9079   -2.5376   13.8510 C   0  0  0  0  0  0  0  0  0  0  0  0
    7.1049   -1.4621   12.9414 N   0  0  0  0  0  0  0  0  0  0  0  0
    7.6730   -0.7080   13.9025 C   0  0  0  0  0  0  0  0  0  0  0  0
    8.7839    0.1739   14.1550 C   0  0  0  0  0  0  0  0  0  0  0  0
    8.9828    0.6680   15.4420 C   0  0  0  0  0  0  0  0  0  0  0  0
    8.0492    0.3918   16.4172 C   0  0  0  0  0  0  0  0  0  0  0  0
    6.9384   -0.4469   16.1170 C   0  0  0  0  0  0  0  0  0  0  0  0
    6.6299   -1.1545   14.7536 C   0  0  0  0  0  0  0  0  0  0  0  0
    5.4419   -2.4504   14.1018 C   0  0  0  0  0  0  0  0  0  0  0  0
    3.6884   -2.9621   12.7207 C   0  0  0  0  0  0  0  0  0  0  0  0
    2.2308   -2.0788   11.4360 C   0  0  0  0  0  0  0  0  0  0  0  0
    0.8418   -1.4007   10.8709 C   0  0  0  0  0  0  0  0  0  0  0  0
   -0.6638   -0.9897   11.7186 C   0  0  0  0  0  0  0  0  0  0  0  0
   -0.0773   -0.8187   13.0479 C   0  0  0  0  0  0  0  0  0  0  0  0
    1.3352   -0.8416   12.5912 N   0  0  0  0  0  0  0  0  0  0  0  0
    2.8532   -4.1046   13.4433 C   0  0  0  0  0  0  0  0  0  0  0  0
    2.9238   -4.9060   12.2552 O   0  0  0  0  0  0  0  0  0  0  0  0
    4.0091   -4.1172   11.7204 C   0  0  0  0  0  0  0  0  0  0  0  0
    8.6208   -3.8133   15.0663 H   0  0  0  0  0  0  0  0  0  0  0  0
    8.3208   -2.2303   15.6751 H   0  0  0  0  0  0  0  0  0  0  0  0
    9.2578   -2.4286   14.2856 H   0  0  0  0  0  0  0  0  0  0  0  0
    7.4742   -1.5233   12.0083 H   0  0  0  0  0  0  0  0  0  0  0  0
    9.4757    0.4587   13.3706 H   0  0  0  0  0  0  0  0  0  0  0  0
    9.8228    1.3255   15.6485 H   0  0  0  0  0  0  0  0  0  0  0  0
    8.1330    0.8413   17.4037 H   0  0  0  0  0  0  0  0  0  0  0  0
    6.2136   -0.5510   16.9345 H   0  0  0  0  0  0  0  0  0  0  0  0
    3.0193   -1.6538   10.8694 H   0  0  0  0  0  0  0  0  0  0  0  0
    0.4858   -1.7053    9.9346 H   0  0  0  0  0  0  0  0  0  0  0  0
    1.2954   -0.8612   10.0520 H   0  0  0  0  0  0  0  0  0  0  0  0
   -1.5251   -1.6397   11.5293 H   0  0  0  0  0  0  0  0  0  0  0  0
   -1.3307   -0.1146   11.6574 H   0  0  0  0  0  0  0  0  0  0  0  0
   -0.3191   -1.5441   13.8342 H   0  0  0  0  0  0  0  0  0  0  0  0
   -0.3119    0.1390   13.5297 H   0  0  0  0  0  0  0  0  0  0  0  0
    1.6248   -1.2644   13.4447 H   0  0  0  0  0  0  0  0  0  0  0  0
    3.2314   -4.6359   14.3212 H   0  0  0  0  0  0  0  0  0  0  0  0
    1.8585   -3.8773   13.7889 H   0  0  0  0  0  0  0  0  0  0  0  0
    4.8407   -4.7411   11.7751 H   0  0  0  0  0  0  0  0  0  0  0  0
    3.9459   -3.9495   10.6519 H   0  0  0  0  0  0  0  0  0  0  0  0
  1  2  1  0
  2  3  1  0
  3  4  1  0
  4  5  2  0
  5  6  1  0
  6  7  2  0
  7  8  1  0
  8  9  2  0
  9 10  1  0
 10 11  1  0
 11 12  1  0
 12 13  1  0
 13 14  1  0
 14 15  1  0
 15 16  1  0
 11 17  1  0
 17 18  1  0
 18 19  1  0
 10  2  2  0
 19 11  1  0
  9  4  1  0
 16 12  1  0
  1 20  1  0
  1 21  1  0
  1 22  1  0
  3 23  1  0
  5 24  1  0
  6 25  1  0
  7 26  1  0
  8 27  1  0
 12 28  1  0
 13 29  1  0
 13 30  1  0
 14 31  1  0
 14 32  1  0
 15 33  1  0
 15 34  1  0
 16 35  1  0
 17 36  1  0
 17 37  1  0
 19 38  1  0
 19 39  1  0
M  END
>  <Energy>  (106) 
847.5534564394577

>  <compound_id>  (106) 
4753

>  <target_id>  (106) 
1

>  <reference_id>  (106) 
95

>  <inspiration_ids>  (106) 
[93, 95]

>  <energy_score>  (106) 
725.7137166477208

>  <distance_score>  (106) 
9.285872182837931

>  <path>  (106) 
/opt/xchem-fragalysis-2/maxwin/BulkDock/SCRATCH/511018/C4753-P95/C4753-P95.minimised.mol

>  <scratch_subdir>  (106) 
/opt/xchem-fragalysis-2/maxwin/BulkDock/SCRATCH/511018/C4753-P95

>  <fragmenstein_runtime>  (106) 
17.72124457359314

>  <fragmenstein_outcome>  (106) 
too moved

>  <fragmenstein_mode>  (106) 
expansion

>  <fragmenstein_error>  (106) 


$$$$
C4754-P93
     RDKit          3D

 39 42  0  0  0  0  0  0  0  0999 V2000
    8.4352   -2.4005   14.7189 C   0  0  0  0  0  0  0  0  0  0  0  0
    7.8809   -1.4395   15.3557 C   0  0  0  0  0  0  0  0  0  0  0  0
    6.4661   -1.6163   15.2667 C   0  0  0  0  0  0  0  0  0  0  0  0
    4.9583   -2.4593   14.6235 C   0  0  0  0  0  0  0  0  0  0  0  0
    3.1655   -2.8141   13.4962 C   0  0  0  0  0  0  0  0  0  0  0  0
    1.5996   -1.1978   12.6606 C   0  0  0  0  0  0  0  0  0  0  0  0
    0.3353   -1.0503   10.8542 C   0  0  0  0  0  0  0  0  0  0  0  0
   -1.5062   -0.8692    9.6102 C   0  0  0  0  0  0  0  0  0  0  0  0
   -2.2391   -1.7134    8.3701 C   0  0  0  0  0  0  0  0  0  0  0  0
   -3.5003   -1.2121    7.6857 C   0  0  0  0  0  0  0  0  0  0  0  0
   -4.0804   -0.3603    8.6986 C   0  0  0  0  0  0  0  0  0  0  0  0
   -2.8552    0.2174    9.2026 N   0  0  0  0  0  0  0  0  0  0  0  0
    0.9113   -0.8239   13.9064 C   0  0  0  0  0  0  0  0  0  0  0  0
    0.9380    0.5908   13.7024 O   0  0  0  0  0  0  0  0  0  0  0  0
    2.1544    0.5230   12.9007 C   0  0  0  0  0  0  0  0  0  0  0  0
    3.2687   -4.0905   14.0629 C   0  0  0  0  0  0  0  0  0  0  0  0
    4.7574   -3.6385   15.0505 N   0  0  0  0  0  0  0  0  0  0  0  0
    5.9281   -3.0596   13.9806 C   0  0  0  0  0  0  0  0  0  0  0  0
    7.4634   -2.7240   13.8352 C   0  0  0  0  0  0  0  0  0  0  0  0
    9.5055   -2.4630   14.6093 H   0  0  0  0  0  0  0  0  0  0  0  0
    8.3856   -0.7074   15.9690 H   0  0  0  0  0  0  0  0  0  0  0  0
    6.4239   -1.0969   16.3320 H   0  0  0  0  0  0  0  0  0  0  0  0
    1.1473   -0.8581   10.1648 H   0  0  0  0  0  0  0  0  0  0  0  0
   -0.1985   -0.5140   11.6854 H   0  0  0  0  0  0  0  0  0  0  0  0
   -1.3440   -0.1117    8.9333 H   0  0  0  0  0  0  0  0  0  0  0  0
   -2.7900   -2.5011    8.8575 H   0  0  0  0  0  0  0  0  0  0  0  0
   -1.5190   -1.9231    7.5783 H   0  0  0  0  0  0  0  0  0  0  0  0
   -3.2426   -0.6914    6.7714 H   0  0  0  0  0  0  0  0  0  0  0  0
   -4.2042   -2.0120    7.4226 H   0  0  0  0  0  0  0  0  0  0  0  0
   -4.7612    0.3718    8.2558 H   0  0  0  0  0  0  0  0  0  0  0  0
   -4.6322   -0.9024    9.4460 H   0  0  0  0  0  0  0  0  0  0  0  0
   -3.0925    0.9096    9.8649 H   0  0  0  0  0  0  0  0  0  0  0  0
    1.0169   -0.8134   14.9997 H   0  0  0  0  0  0  0  0  0  0  0  0
    0.2397   -1.6597   13.9510 H   0  0  0  0  0  0  0  0  0  0  0  0
    2.4860    1.1745   12.0765 H   0  0  0  0  0  0  0  0  0  0  0  0
    2.8782    1.0889   13.4983 H   0  0  0  0  0  0  0  0  0  0  0  0
    2.7114   -4.8858   14.5276 H   0  0  0  0  0  0  0  0  0  0  0  0
    4.8206   -4.0474   15.9893 H   0  0  0  0  0  0  0  0  0  0  0  0
    7.5194   -2.1215   12.9015 H   0  0  0  0  0  0  0  0  0  0  0  0
  1  2  2  0
  2  3  1  0
  3  4  2  0
  4  5  1  0
  5  6  1  0
  6  7  1  0
  7  8  1  0
  8  9  1  0
  9 10  1  0
 10 11  1  0
 11 12  1  0
  6 13  1  0
 13 14  1  0
 14 15  1  0
  5 16  2  0
 16 17  1  0
 17 18  1  0
 18 19  2  0
 19  1  1  0
 18  4  1  0
 15  6  1  0
 12  8  1  0
  1 20  1  0
  2 21  1  0
  3 22  1  0
  7 23  1  0
  7 24  1  0
  8 25  1  0
  9 26  1  0
  9 27  1  0
 10 28  1  0
 10 29  1  0
 11 30  1  0
 11 31  1  0
 12 32  1  0
 13 33  1  0
 13 34  1  0
 15 35  1  0
 15 36  1  0
 16 37  1  0
 17 38  1  0
 19 39  1  0
M  END
>  <Energy>  (107) 
1458.0643750497381

>  <compound_id>  (107) 
4754

>  <target_id>  (107) 
1

>  <reference_id>  (107) 
93

>  <inspiration_ids>  (107) 
[93, 95]

>  <energy_score>  (107) 
1387.506960842348

>  <distance_score>  (107) 
7.702902910681959

>  <path>  (107) 
/opt/xchem-fragalysis-2/maxwin/BulkDock/SCRATCH/511018/C4754-P93/C4754-P93.minimised.mol

>  <scratch_subdir>  (107) 
/opt/xchem-fragalysis-2/maxwin/BulkDock/SCRATCH/511018/C4754-P93

>  <fragmenstein_runtime>  (107) 
10.385103702545166

>  <fragmenstein_outcome>  (107) 
too moved

>  <fragmenstein_mode>  (107) 
expansion

>  <fragmenstein_error>  (107) 


$$$$
C4754-P95
     RDKit          3D

 39 42  0  0  0  0  0  0  0  0999 V2000
    9.7849    1.0183   15.9101 C   0  0  0  0  0  0  0  0  0  0  0  0
    8.5188    1.0015   16.4518 C   0  0  0  0  0  0  0  0  0  0  0  0
    7.6124   -0.0159   16.0928 C   0  0  0  0  0  0  0  0  0  0  0  0
    7.8394   -0.9228   15.0721 C   0  0  0  0  0  0  0  0  0  0  0  0
    6.9205   -2.0498   14.2844 C   0  0  0  0  0  0  0  0  0  0  0  0
    6.0876   -2.0095   12.3675 C   0  0  0  0  0  0  0  0  0  0  0  0
    4.7039   -3.1842   11.5595 C   0  0  0  0  0  0  0  0  0  0  0  0
    4.1835   -4.1711    9.9360 C   0  0  0  0  0  0  0  0  0  0  0  0
    3.2433   -3.7011    8.4601 C   0  0  0  0  0  0  0  0  0  0  0  0
    3.5975   -4.4523    7.1274 C   0  0  0  0  0  0  0  0  0  0  0  0
    5.0204   -4.8954    7.3454 C   0  0  0  0  0  0  0  0  0  0  0  0
    5.4161   -4.7063    8.7777 N   0  0  0  0  0  0  0  0  0  0  0  0
    6.0023   -0.6107   12.5159 C   0  0  0  0  0  0  0  0  0  0  0  0
    7.4134   -0.4045   12.3482 O   0  0  0  0  0  0  0  0  0  0  0  0
    7.0943   -1.3390   11.3391 C   0  0  0  0  0  0  0  0  0  0  0  0
    8.1245   -2.6260   14.1868 C   0  0  0  0  0  0  0  0  0  0  0  0
    9.3091   -2.3901   14.8050 N   0  0  0  0  0  0  0  0  0  0  0  0
    9.2351   -1.0707   15.0118 C   0  0  0  0  0  0  0  0  0  0  0  0
   10.2214   -0.1187   15.2626 C   0  0  0  0  0  0  0  0  0  0  0  0
   10.4648    1.8300   16.1411 H   0  0  0  0  0  0  0  0  0  0  0  0
    8.2241    1.7570   17.1759 H   0  0  0  0  0  0  0  0  0  0  0  0
    6.7203   -0.2376   16.6337 H   0  0  0  0  0  0  0  0  0  0  0  0
    3.7779   -3.0639   12.1090 H   0  0  0  0  0  0  0  0  0  0  0  0
    5.0405   -4.1287   11.8830 H   0  0  0  0  0  0  0  0  0  0  0  0
    3.7037   -4.9071   10.5431 H   0  0  0  0  0  0  0  0  0  0  0  0
    3.5219   -2.7310    8.4033 H   0  0  0  0  0  0  0  0  0  0  0  0
    2.1773   -3.6778    8.3030 H   0  0  0  0  0  0  0  0  0  0  0  0
    3.4522   -3.8375    6.2317 H   0  0  0  0  0  0  0  0  0  0  0  0
    2.9296   -5.3099    6.9631 H   0  0  0  0  0  0  0  0  0  0  0  0
    5.1604   -5.9404    7.0472 H   0  0  0  0  0  0  0  0  0  0  0  0
    5.7186   -4.3428    6.7055 H   0  0  0  0  0  0  0  0  0  0  0  0
    6.1372   -3.9838    8.7245 H   0  0  0  0  0  0  0  0  0  0  0  0
    5.3124   -0.3751   11.7650 H   0  0  0  0  0  0  0  0  0  0  0  0
    5.6535   -0.6091   13.5005 H   0  0  0  0  0  0  0  0  0  0  0  0
    7.5637   -2.1668   10.9009 H   0  0  0  0  0  0  0  0  0  0  0  0
    6.9317   -0.6651   10.4959 H   0  0  0  0  0  0  0  0  0  0  0  0
    8.2854   -2.5640   13.1775 H   0  0  0  0  0  0  0  0  0  0  0  0
   10.1791   -2.8731   14.6256 H   0  0  0  0  0  0  0  0  0  0  0  0
   11.2657   -0.2939   15.0362 H   0  0  0  0  0  0  0  0  0  0  0  0
  1  2  2  0
  2  3  1  0
  3  4  2  0
  4  5  1  0
  5  6  1  0
  6  7  1  0
  7  8  1  0
  8  9  1  0
  9 10  1  0
 10 11  1  0
 11 12  1  0
  6 13  1  0
 13 14  1  0
 14 15  1  0
  5 16  2  0
 16 17  1  0
 17 18  1  0
 18 19  2  0
 19  1  1  0
 18  4  1  0
 15  6  1  0
 12  8  1  0
  1 20  1  0
  2 21  1  0
  3 22  1  0
  7 23  1  0
  7 24  1  0
  8 25  1  0
  9 26  1  0
  9 27  1  0
 10 28  1  0
 10 29  1  0
 11 30  1  0
 11 31  1  0
 12 32  1  0
 13 33  1  0
 13 34  1  0
 15 35  1  0
 15 36  1  0
 16 37  1  0
 17 38  1  0
 19 39  1  0
M  END
>  <Energy>  (108) 
556.94714966038157

>  <compound_id>  (108) 
4754

>  <target_id>  (108) 
1

>  <reference_id>  (108) 
95

>  <inspiration_ids>  (108) 
[93, 95]

>  <energy_score>  (108) 
486.38973545299245

>  <distance_score>  (108) 
10.205134281058507

>  <path>  (108) 
/opt/xchem-fragalysis-2/maxwin/BulkDock/SCRATCH/511018/C4754-P95/C4754-P95.minimised.mol

>  <scratch_subdir>  (108) 
/opt/xchem-fragalysis-2/maxwin/BulkDock/SCRATCH/511018/C4754-P95

>  <fragmenstein_runtime>  (108) 
12.339629411697388

>  <fragmenstein_outcome>  (108) 
too moved

>  <fragmenstein_mode>  (108) 
expansion

>  <fragmenstein_error>  (108) 


$$$$
C4756-P93
     RDKit          3D

 42 44  0  0  0  0  0  0  0  0999 V2000
    2.5669   -3.8917   10.7775 C   0  0  0  0  0  0  0  0  0  0  0  0
    2.0496   -2.1741   10.2837 N   0  0  0  0  0  0  0  0  0  0  0  0
    0.3626   -1.2813   10.4147 C   0  0  0  0  0  0  0  0  0  0  0  0
    0.2531   -0.6895   11.4675 O   0  0  0  0  0  0  0  0  0  0  0  0
   -1.4371   -0.9757    9.2151 C   0  0  0  0  0  0  0  0  0  0  0  0
   -3.0867   -0.9866    8.9700 N   0  0  0  0  0  0  0  0  0  0  0  0
   -3.8468   -0.8971    7.7953 C   0  0  0  0  0  0  0  0  0  0  0  0
   -3.5131   -0.8682    6.6666 O   0  0  0  0  0  0  0  0  0  0  0  0
   -5.3958   -0.9152    7.9902 C   0  0  0  0  0  0  0  0  0  0  0  0
   -6.1289    0.2500    7.3324 C   0  0  0  0  0  0  0  0  0  0  0  0
   -7.5483   -0.2731    7.1255 C   0  0  0  0  0  0  0  0  0  0  0  0
   -7.4168   -1.7878    7.1203 C   0  0  0  0  0  0  0  0  0  0  0  0
   -5.9854   -2.0169    7.1983 N   0  0  0  0  0  0  0  0  0  0  0  0
    3.5819   -2.1913   11.4016 C   0  0  0  0  0  0  0  0  0  0  0  0
    4.6302   -0.7349   11.3207 C   0  0  0  0  0  0  0  0  0  0  0  0
    6.2002   -0.8667   11.7726 C   0  0  0  0  0  0  0  0  0  0  0  0
    6.6700   -1.6566   12.7707 C   0  0  0  0  0  0  0  0  0  0  0  0
    7.6739   -1.4601   13.7265 C   0  0  0  0  0  0  0  0  0  0  0  0
    7.3869   -2.2721   14.7490 C   0  0  0  0  0  0  0  0  0  0  0  0
    6.1706   -2.7960   14.4671 N   0  0  0  0  0  0  0  0  0  0  0  0
    5.8177   -2.7032   13.1065 C   0  0  0  0  0  0  0  0  0  0  0  0
    4.3240   -3.1560   12.2923 C   0  0  0  0  0  0  0  0  0  0  0  0
    2.2793   -4.2584   11.7659 H   0  0  0  0  0  0  0  0  0  0  0  0
    3.5990   -4.1268   10.5696 H   0  0  0  0  0  0  0  0  0  0  0  0
    2.2969   -4.5197    9.9387 H   0  0  0  0  0  0  0  0  0  0  0  0
   -1.6356    0.0534    8.9604 H   0  0  0  0  0  0  0  0  0  0  0  0
   -1.4446   -1.5655    8.2848 H   0  0  0  0  0  0  0  0  0  0  0  0
   -3.7002   -0.9018    9.7641 H   0  0  0  0  0  0  0  0  0  0  0  0
   -5.6780   -0.9849    9.0331 H   0  0  0  0  0  0  0  0  0  0  0  0
   -6.1175    1.1585    7.9394 H   0  0  0  0  0  0  0  0  0  0  0  0
   -5.6904    0.5113    6.3610 H   0  0  0  0  0  0  0  0  0  0  0  0
   -7.9710    0.1080    6.1902 H   0  0  0  0  0  0  0  0  0  0  0  0
   -8.1970    0.0482    7.9483 H   0  0  0  0  0  0  0  0  0  0  0  0
   -7.9326   -2.2203    7.9840 H   0  0  0  0  0  0  0  0  0  0  0  0
   -7.8379   -2.2294    6.2127 H   0  0  0  0  0  0  0  0  0  0  0  0
   -5.7263   -2.9454    7.5044 H   0  0  0  0  0  0  0  0  0  0  0  0
    4.3084    0.1644   10.7696 H   0  0  0  0  0  0  0  0  0  0  0  0
    6.9394   -0.4714   11.0936 H   0  0  0  0  0  0  0  0  0  0  0  0
    8.4114   -0.6644   13.7798 H   0  0  0  0  0  0  0  0  0  0  0  0
    7.8923   -2.3466   15.6708 H   0  0  0  0  0  0  0  0  0  0  0  0
    5.5587   -3.2791   15.0963 H   0  0  0  0  0  0  0  0  0  0  0  0
    3.6064   -3.7377   12.8954 H   0  0  0  0  0  0  0  0  0  0  0  0
  1  2  1  0
  2  3  1  0
  3  4  2  0
  3  5  1  0
  5  6  1  0
  6  7  1  0
  7  8  2  0
  7  9  1  0
  9 10  1  0
 10 11  1  0
 11 12  1  0
 12 13  1  0
  2 14  1  0
 14 15  2  0
 15 16  1  0
 16 17  2  0
 17 18  1  0
 18 19  2  0
 19 20  1  0
 20 21  1  0
 21 22  2  0
 13  9  1  0
 22 14  1  0
 21 17  1  0
  1 23  1  0
  1 24  1  0
  1 25  1  0
  5 26  1  0
  5 27  1  0
  6 28  1  0
  9 29  1  0
 10 30  1  0
 10 31  1  0
 11 32  1  0
 11 33  1  0
 12 34  1  0
 12 35  1  0
 13 36  1  0
 15 37  1  0
 16 38  1  0
 18 39  1  0
 19 40  1  0
 20 41  1  0
 22 42  1  0
M  END
>  <Energy>  (109) 
744.48785073395186

>  <compound_id>  (109) 
4756

>  <target_id>  (109) 
1

>  <reference_id>  (109) 
93

>  <inspiration_ids>  (109) 
[93, 95]

>  <energy_score>  (109) 
634.7444746619044

>  <distance_score>  (109) 
7.150258838032146

>  <path>  (109) 
/opt/xchem-fragalysis-2/maxwin/BulkDock/SCRATCH/511018/C4756-P93/C4756-P93.minimised.mol

>  <scratch_subdir>  (109) 
/opt/xchem-fragalysis-2/maxwin/BulkDock/SCRATCH/511018/C4756-P93

>  <fragmenstein_runtime>  (109) 
9.072329044342041

>  <fragmenstein_outcome>  (109) 
too moved

>  <fragmenstein_mode>  (109) 
expansion

>  <fragmenstein_error>  (109) 


$$$$
C4756-P95
     RDKit          3D

 42 44  0  0  0  0  0  0  0  0999 V2000
    3.4414   -3.5440   12.3951 C   0  0  0  0  0  0  0  0  0  0  0  0
    3.6969   -2.5509   11.1852 N   0  0  0  0  0  0  0  0  0  0  0  0
    2.2397   -1.3276   10.9714 C   0  0  0  0  0  0  0  0  0  0  0  0
    2.2981   -0.2468   11.5799 O   0  0  0  0  0  0  0  0  0  0  0  0
    0.5115   -1.3860    9.8350 C   0  0  0  0  0  0  0  0  0  0  0  0
   -1.4423   -1.2587    9.1351 N   0  0  0  0  0  0  0  0  0  0  0  0
   -2.0222   -1.2571    7.6831 C   0  0  0  0  0  0  0  0  0  0  0  0
   -1.4502   -1.2500    6.6040 O   0  0  0  0  0  0  0  0  0  0  0  0
   -3.5768   -1.2969    7.4787 C   0  0  0  0  0  0  0  0  0  0  0  0
   -4.6538   -0.6731    8.3184 C   0  0  0  0  0  0  0  0  0  0  0  0
   -5.9396   -1.2129    7.6852 C   0  0  0  0  0  0  0  0  0  0  0  0
   -5.5089   -2.4260    6.8615 C   0  0  0  0  0  0  0  0  0  0  0  0
   -4.1034   -2.6573    7.2311 N   0  0  0  0  0  0  0  0  0  0  0  0
    5.4255   -2.3859   12.1168 C   0  0  0  0  0  0  0  0  0  0  0  0
    6.4491   -1.3595   11.8368 C   0  0  0  0  0  0  0  0  0  0  0  0
    7.4500   -0.7573   12.6205 C   0  0  0  0  0  0  0  0  0  0  0  0
    7.9924   -1.0220   13.8718 C   0  0  0  0  0  0  0  0  0  0  0  0
    9.0552   -0.4345   14.6246 C   0  0  0  0  0  0  0  0  0  0  0  0
    8.5677   -0.4303   15.8829 C   0  0  0  0  0  0  0  0  0  0  0  0
    7.3297   -1.0208   15.7694 N   0  0  0  0  0  0  0  0  0  0  0  0
    7.1006   -1.7321   14.5717 C   0  0  0  0  0  0  0  0  0  0  0  0
    5.9225   -2.3868   13.8161 C   0  0  0  0  0  0  0  0  0  0  0  0
    3.5614   -3.1560   13.3631 H   0  0  0  0  0  0  0  0  0  0  0  0
    3.9294   -4.4619   12.0472 H   0  0  0  0  0  0  0  0  0  0  0  0
    2.4466   -3.9359   12.6119 H   0  0  0  0  0  0  0  0  0  0  0  0
   -0.0569   -0.9949   10.7238 H   0  0  0  0  0  0  0  0  0  0  0  0
    0.4519   -2.0557   10.6670 H   0  0  0  0  0  0  0  0  0  0  0  0
   -2.1878   -1.1834    9.7848 H   0  0  0  0  0  0  0  0  0  0  0  0
   -3.6749   -0.8246    6.4910 H   0  0  0  0  0  0  0  0  0  0  0  0
   -4.5540   -0.9757    9.3460 H   0  0  0  0  0  0  0  0  0  0  0  0
   -4.6787    0.4137    8.3374 H   0  0  0  0  0  0  0  0  0  0  0  0
   -6.3829   -0.4569    7.0263 H   0  0  0  0  0  0  0  0  0  0  0  0
   -6.6835   -1.4582    8.4468 H   0  0  0  0  0  0  0  0  0  0  0  0
   -6.1284   -3.3051    7.0550 H   0  0  0  0  0  0  0  0  0  0  0  0
   -5.5829   -2.1989    5.7912 H   0  0  0  0  0  0  0  0  0  0  0  0
   -3.6086   -3.0787    6.4469 H   0  0  0  0  0  0  0  0  0  0  0  0
    6.5891   -0.7879   10.9202 H   0  0  0  0  0  0  0  0  0  0  0  0
    7.9366    0.0890   12.1966 H   0  0  0  0  0  0  0  0  0  0  0  0
    9.8887    0.1453   14.2501 H   0  0  0  0  0  0  0  0  0  0  0  0
    8.8667    0.1191   16.7641 H   0  0  0  0  0  0  0  0  0  0  0  0
    6.6140   -0.7747   16.4373 H   0  0  0  0  0  0  0  0  0  0  0  0
    5.1640   -2.6665   14.5527 H   0  0  0  0  0  0  0  0  0  0  0  0
  1  2  1  0
  2  3  1  0
  3  4  2  0
  3  5  1  0
  5  6  1  0
  6  7  1  0
  7  8  2  0
  7  9  1  0
  9 10  1  0
 10 11  1  0
 11 12  1  0
 12 13  1  0
  2 14  1  0
 14 15  2  0
 15 16  1  0
 16 17  2  0
 17 18  1  0
 18 19  2  0
 19 20  1  0
 20 21  1  0
 21 22  2  0
 13  9  1  0
 22 14  1  0
 21 17  1  0
  1 23  1  0
  1 24  1  0
  1 25  1  0
  5 26  1  0
  5 27  1  0
  6 28  1  0
  9 29  1  0
 10 30  1  0
 10 31  1  0
 11 32  1  0
 11 33  1  0
 12 34  1  0
 12 35  1  0
 13 36  1  0
 15 37  1  0
 16 38  1  0
 18 39  1  0
 19 40  1  0
 20 41  1  0
 22 42  1  0
M  END
>  <Energy>  (110) 
764.48555196280472

>  <compound_id>  (110) 
4756

>  <target_id>  (110) 
1

>  <reference_id>  (110) 
95

>  <inspiration_ids>  (110) 
[93, 95]

>  <energy_score>  (110) 
654.7421758907788

>  <distance_score>  (110) 
6.8669524987234025

>  <path>  (110) 
/opt/xchem-fragalysis-2/maxwin/BulkDock/SCRATCH/511018/C4756-P95/C4756-P95.minimised.mol

>  <scratch_subdir>  (110) 
/opt/xchem-fragalysis-2/maxwin/BulkDock/SCRATCH/511018/C4756-P95

>  <fragmenstein_runtime>  (110) 
16.774982213974

>  <fragmenstein_outcome>  (110) 
too moved

>  <fragmenstein_mode>  (110) 
expansion

>  <fragmenstein_error>  (110) 


$$$$
C4757-P93
     RDKit          3D

 31 33  0  0  0  0  0  0  0  0999 V2000
    2.8754   -5.5170   11.6526 F   0  0  0  0  0  0  0  0  0  0  0  0
    2.9552   -4.5465   10.6320 C   0  0  0  0  0  0  0  0  0  0  0  0
    3.7644   -3.1413   11.6309 C   0  0  0  0  0  0  0  0  0  0  0  0
    3.4112   -3.5119   12.9150 C   0  0  0  0  0  0  0  0  0  0  0  0
    4.7864   -3.3918   12.4173 N   0  0  0  0  0  0  0  0  0  0  0  0
    5.6962   -2.9411   13.8196 C   0  0  0  0  0  0  0  0  0  0  0  0
    6.8522   -2.4512   14.4832 C   0  0  0  0  0  0  0  0  0  0  0  0
    7.7193   -1.4726   14.2032 C   0  0  0  0  0  0  0  0  0  0  0  0
    7.5087   -0.9299   13.0017 C   0  0  0  0  0  0  0  0  0  0  0  0
    6.5779   -1.4350   12.1199 C   0  0  0  0  0  0  0  0  0  0  0  0
    5.5667   -2.5985   12.4004 C   0  0  0  0  0  0  0  0  0  0  0  0
    1.5685   -5.2469    9.2800 C   0  0  0  0  0  0  0  0  0  0  0  0
    0.5237   -6.8805    9.7319 C   0  0  0  0  0  0  0  0  0  0  0  0
   -0.6908   -7.1528    8.8888 C   0  0  0  0  0  0  0  0  0  0  0  0
   -0.1892   -6.5695    7.6304 C   0  0  0  0  0  0  0  0  0  0  0  0
    0.8221   -5.3919    7.9991 N   0  0  0  0  0  0  0  0  0  0  0  0
    3.9518   -4.7192   10.2566 H   0  0  0  0  0  0  0  0  0  0  0  0
    2.8824   -4.3651   13.3212 H   0  0  0  0  0  0  0  0  0  0  0  0
    5.1321   -4.3004   11.9843 H   0  0  0  0  0  0  0  0  0  0  0  0
    7.1364   -2.9118   15.3942 H   0  0  0  0  0  0  0  0  0  0  0  0
    8.5245   -1.1681   14.8522 H   0  0  0  0  0  0  0  0  0  0  0  0
    8.1750   -0.1393   12.7210 H   0  0  0  0  0  0  0  0  0  0  0  0
    6.5637   -0.9066   11.1715 H   0  0  0  0  0  0  0  0  0  0  0  0
    1.6272   -4.2892    8.7421 H   0  0  0  0  0  0  0  0  0  0  0  0
    0.2934   -7.1464   10.7916 H   0  0  0  0  0  0  0  0  0  0  0  0
    1.0534   -7.7774    9.6947 H   0  0  0  0  0  0  0  0  0  0  0  0
   -1.5984   -6.6916    9.2863 H   0  0  0  0  0  0  0  0  0  0  0  0
   -0.8788   -8.2284    8.7997 H   0  0  0  0  0  0  0  0  0  0  0  0
    0.2726   -7.3881    7.0616 H   0  0  0  0  0  0  0  0  0  0  0  0
   -0.9373   -6.1375    6.9707 H   0  0  0  0  0  0  0  0  0  0  0  0
    1.6086   -5.5119    7.3808 H   0  0  0  0  0  0  0  0  0  0  0  0
  1  2  1  0
  2  3  1  0
  3  4  2  0
  4  5  1  0
  5  6  1  0
  6  7  2  0
  7  8  1  0
  8  9  2  0
  9 10  1  0
 10 11  2  0
  2 12  1  0
 12 13  1  0
 13 14  1  0
 14 15  1  0
 15 16  1  0
 11  3  1  0
 16 12  1  0
 11  6  1  0
  2 17  1  0
  4 18  1  0
  5 19  1  0
  7 20  1  0
  8 21  1  0
  9 22  1  0
 10 23  1  0
 12 24  1  0
 13 25  1  0
 13 26  1  0
 14 27  1  0
 14 28  1  0
 15 29  1  0
 15 30  1  0
 16 31  1  0
M  END
>  <Energy>  (111) 
823.58969096223188

>  <compound_id>  (111) 
4757

>  <target_id>  (111) 
1

>  <reference_id>  (111) 
93

>  <inspiration_ids>  (111) 
[93, 95]

>  <energy_score>  (111) 
741.0550278146139

>  <distance_score>  (111) 
9.547205639638598

>  <path>  (111) 
/opt/xchem-fragalysis-2/maxwin/BulkDock/SCRATCH/511018/C4757-P93/C4757-P93.minimised.mol

>  <scratch_subdir>  (111) 
/opt/xchem-fragalysis-2/maxwin/BulkDock/SCRATCH/511018/C4757-P93

>  <fragmenstein_runtime>  (111) 
5.703408718109131

>  <fragmenstein_outcome>  (111) 
too moved

>  <fragmenstein_mode>  (111) 
expansion

>  <fragmenstein_error>  (111) 


$$$$
C4757-P95
     RDKit          3D

 31 33  0  0  0  0  0  0  0  0999 V2000
    3.2878   -3.4173   12.5715 F   0  0  0  0  0  0  0  0  0  0  0  0
    3.7928   -2.5138   11.5785 C   0  0  0  0  0  0  0  0  0  0  0  0
    5.6677   -2.2661   12.3644 C   0  0  0  0  0  0  0  0  0  0  0  0
    5.8377   -2.4792   13.9403 C   0  0  0  0  0  0  0  0  0  0  0  0
    7.0864   -2.4837   14.4202 N   0  0  0  0  0  0  0  0  0  0  0  0
    7.5984   -1.3640   14.0086 C   0  0  0  0  0  0  0  0  0  0  0  0
    8.5897   -0.6267   14.7282 C   0  0  0  0  0  0  0  0  0  0  0  0
    9.1226    0.4888   14.1591 C   0  0  0  0  0  0  0  0  0  0  0  0
    8.6839    0.7114   12.8807 C   0  0  0  0  0  0  0  0  0  0  0  0
    7.6491   -0.2084   12.1432 C   0  0  0  0  0  0  0  0  0  0  0  0
    6.9695   -1.2582   12.7141 C   0  0  0  0  0  0  0  0  0  0  0  0
    2.0717   -1.3134   11.2720 C   0  0  0  0  0  0  0  0  0  0  0  0
    0.4890   -1.3791   11.2013 C   0  0  0  0  0  0  0  0  0  0  0  0
   -0.6702   -0.7733   12.3242 C   0  0  0  0  0  0  0  0  0  0  0  0
    0.1974   -0.6667   13.4685 C   0  0  0  0  0  0  0  0  0  0  0  0
    1.4257   -0.5239   12.7335 N   0  0  0  0  0  0  0  0  0  0  0  0
    3.9182   -3.2079   10.7679 H   0  0  0  0  0  0  0  0  0  0  0  0
    5.0665   -2.7533   14.6433 H   0  0  0  0  0  0  0  0  0  0  0  0
    7.4570   -2.9303   15.2293 H   0  0  0  0  0  0  0  0  0  0  0  0
    8.9216   -0.9528   15.7046 H   0  0  0  0  0  0  0  0  0  0  0  0
    9.8667    1.1052   14.6424 H   0  0  0  0  0  0  0  0  0  0  0  0
    9.1271    1.5775   12.3892 H   0  0  0  0  0  0  0  0  0  0  0  0
    7.3890   -0.1790   11.1020 H   0  0  0  0  0  0  0  0  0  0  0  0
    2.5576   -0.3492   11.1530 H   0  0  0  0  0  0  0  0  0  0  0  0
   -0.2768   -1.0081   10.5749 H   0  0  0  0  0  0  0  0  0  0  0  0
    0.6476   -1.6510   10.1970 H   0  0  0  0  0  0  0  0  0  0  0  0
   -1.5598   -1.3302   12.6232 H   0  0  0  0  0  0  0  0  0  0  0  0
   -1.1867    0.1781   12.1415 H   0  0  0  0  0  0  0  0  0  0  0  0
    0.0769   -1.5365   14.1081 H   0  0  0  0  0  0  0  0  0  0  0  0
   -0.0127    0.2109   14.0895 H   0  0  0  0  0  0  0  0  0  0  0  0
    1.8126    0.4245   12.7207 H   0  0  0  0  0  0  0  0  0  0  0  0
  1  2  1  0
  2  3  1  0
  3  4  2  0
  4  5  1  0
  5  6  1  0
  6  7  2  0
  7  8  1  0
  8  9  2  0
  9 10  1  0
 10 11  2  0
  2 12  1  0
 12 13  1  0
 13 14  1  0
 14 15  1  0
 15 16  1  0
 11  3  1  0
 16 12  1  0
 11  6  1  0
  2 17  1  0
  4 18  1  0
  5 19  1  0
  7 20  1  0
  8 21  1  0
  9 22  1  0
 10 23  1  0
 12 24  1  0
 13 25  1  0
 13 26  1  0
 14 27  1  0
 14 28  1  0
 15 29  1  0
 15 30  1  0
 16 31  1  0
M  END
>  <Energy>  (112) 
566.88419609683922

>  <compound_id>  (112) 
4757

>  <target_id>  (112) 
1

>  <reference_id>  (112) 
95

>  <inspiration_ids>  (112) 
[93, 95]

>  <energy_score>  (112) 
484.34953294922934

>  <distance_score>  (112) 
9.389218785207161

>  <path>  (112) 
/opt/xchem-fragalysis-2/maxwin/BulkDock/SCRATCH/511018/C4757-P95/C4757-P95.minimised.mol

>  <scratch_subdir>  (112) 
/opt/xchem-fragalysis-2/maxwin/BulkDock/SCRATCH/511018/C4757-P95

>  <fragmenstein_runtime>  (112) 
6.458266973495483

>  <fragmenstein_outcome>  (112) 
too moved

>  <fragmenstein_mode>  (112) 
expansion

>  <fragmenstein_error>  (112) 


$$$$
C4758-P93
     RDKit          3D

 49 51  0  0  0  0  0  0  0  0999 V2000
   10.8874    2.1238   14.7264 C   0  0  0  0  0  0  0  0  0  0  0  0
   10.0441    0.9615   14.5351 N   0  0  0  0  0  0  0  0  0  0  0  0
    9.3990    0.6600   13.3412 C   0  0  0  0  0  0  0  0  0  0  0  0
    8.3229   -0.2694   13.5419 C   0  0  0  0  0  0  0  0  0  0  0  0
    6.8505   -0.9400   12.5335 C   0  0  0  0  0  0  0  0  0  0  0  0
    5.2206   -0.5104   11.5334 C   0  0  0  0  0  0  0  0  0  0  0  0
    4.1002    0.9253   11.1371 N   0  0  0  0  0  0  0  0  0  0  0  0
    4.1035    1.9118    9.9227 C   0  0  0  0  0  0  0  0  0  0  0  0
    4.7669    1.8987    8.9581 O   0  0  0  0  0  0  0  0  0  0  0  0
    3.1141    2.9094   10.3838 N   0  0  0  0  0  0  0  0  0  0  0  0
    2.6310    4.1633    9.7488 C   0  0  0  0  0  0  0  0  0  0  0  0
    1.3689    3.8697    8.9422 C   0  0  0  0  0  0  0  0  0  0  0  0
    0.5070    4.8854    8.1851 C   0  0  0  0  0  0  0  0  0  0  0  0
   -0.4807    5.6667    9.0672 C   0  0  0  0  0  0  0  0  0  0  0  0
   -1.8710    5.4403    8.4722 C   0  0  0  0  0  0  0  0  0  0  0  0
   -1.5844    4.9461    7.0774 C   0  0  0  0  0  0  0  0  0  0  0  0
   -0.4022    4.1183    7.2888 N   0  0  0  0  0  0  0  0  0  0  0  0
    9.0790   -0.9676   14.7243 C   0  0  0  0  0  0  0  0  0  0  0  0
    9.2112   -2.3339   14.9531 C   0  0  0  0  0  0  0  0  0  0  0  0
   10.5102   -2.8669   15.2358 C   0  0  0  0  0  0  0  0  0  0  0  0
   11.5466   -2.0870   15.7036 C   0  0  0  0  0  0  0  0  0  0  0  0
   11.3653   -0.7232   15.7664 C   0  0  0  0  0  0  0  0  0  0  0  0
   10.2099   -0.2332   15.1359 C   0  0  0  0  0  0  0  0  0  0  0  0
   11.0238    2.2839   15.7991 H   0  0  0  0  0  0  0  0  0  0  0  0
   11.8462    1.9481   14.2320 H   0  0  0  0  0  0  0  0  0  0  0  0
   10.3860    2.9921   14.2907 H   0  0  0  0  0  0  0  0  0  0  0  0
    9.7433    1.3097   12.5677 H   0  0  0  0  0  0  0  0  0  0  0  0
    6.5504   -1.7472   13.2124 H   0  0  0  0  0  0  0  0  0  0  0  0
    7.3797   -1.4392   11.7296 H   0  0  0  0  0  0  0  0  0  0  0  0
    5.8296   -0.4930   10.6406 H   0  0  0  0  0  0  0  0  0  0  0  0
    4.3846   -1.1715   11.5466 H   0  0  0  0  0  0  0  0  0  0  0  0
    3.4712    1.2609   11.8363 H   0  0  0  0  0  0  0  0  0  0  0  0
    2.7884    2.6533   11.2921 H   0  0  0  0  0  0  0  0  0  0  0  0
    3.4250    4.5374    9.0960 H   0  0  0  0  0  0  0  0  0  0  0  0
    2.4388    4.8861   10.5465 H   0  0  0  0  0  0  0  0  0  0  0  0
    1.6721    3.0806    8.2455 H   0  0  0  0  0  0  0  0  0  0  0  0
    0.6998    3.4956    9.7054 H   0  0  0  0  0  0  0  0  0  0  0  0
    1.1302    5.5671    7.5954 H   0  0  0  0  0  0  0  0  0  0  0  0
   -0.4579    5.3727   10.1217 H   0  0  0  0  0  0  0  0  0  0  0  0
   -0.2337    6.7345    9.0246 H   0  0  0  0  0  0  0  0  0  0  0  0
   -2.4682    6.3572    8.4742 H   0  0  0  0  0  0  0  0  0  0  0  0
   -2.4178    4.6857    9.0466 H   0  0  0  0  0  0  0  0  0  0  0  0
   -2.4194    4.3826    6.6579 H   0  0  0  0  0  0  0  0  0  0  0  0
   -1.3543    5.7799    6.4038 H   0  0  0  0  0  0  0  0  0  0  0  0
    0.0733    3.9677    6.3924 H   0  0  0  0  0  0  0  0  0  0  0  0
    8.4162   -2.9765   14.6143 H   0  0  0  0  0  0  0  0  0  0  0  0
   10.6743   -3.9367   15.1484 H   0  0  0  0  0  0  0  0  0  0  0  0
   12.4917   -2.5391   15.9888 H   0  0  0  0  0  0  0  0  0  0  0  0
   12.1955   -0.0763   16.0312 H   0  0  0  0  0  0  0  0  0  0  0  0
  1  2  1  0
  2  3  1  0
  3  4  2  0
  4  5  1  0
  5  6  1  0
  6  7  1  0
  7  8  1  0
  8  9  2  0
  8 10  1  0
 10 11  1  0
 11 12  1  0
 12 13  1  0
 13 14  1  0
 14 15  1  0
 15 16  1  0
 16 17  1  0
  4 18  1  0
 18 19  2  0
 19 20  1  0
 20 21  2  0
 21 22  1  0
 22 23  2  0
 23  2  1  0
 17 13  1  0
 23 18  1  0
  1 24  1  0
  1 25  1  0
  1 26  1  0
  3 27  1  0
  5 28  1  0
  5 29  1  0
  6 30  1  0
  6 31  1  0
  7 32  1  0
 10 33  1  0
 11 34  1  0
 11 35  1  0
 12 36  1  0
 12 37  1  0
 13 38  1  0
 14 39  1  0
 14 40  1  0
 15 41  1  0
 15 42  1  0
 16 43  1  0
 16 44  1  0
 17 45  1  0
 19 46  1  0
 20 47  1  0
 21 48  1  0
 22 49  1  0
M  END
>  <Energy>  (113) 
214.00096041000444

>  <compound_id>  (113) 
4758

>  <target_id>  (113) 
1

>  <reference_id>  (113) 
93

>  <inspiration_ids>  (113) 
[93, 95]

>  <energy_score>  (113) 
225.98037704331918

>  <distance_score>  (113) 
9.323857863773677

>  <path>  (113) 
/opt/xchem-fragalysis-2/maxwin/BulkDock/SCRATCH/511018/C4758-P93/C4758-P93.minimised.mol

>  <scratch_subdir>  (113) 
/opt/xchem-fragalysis-2/maxwin/BulkDock/SCRATCH/511018/C4758-P93

>  <fragmenstein_runtime>  (113) 
16.20772647857666

>  <fragmenstein_outcome>  (113) 
too moved

>  <fragmenstein_mode>  (113) 
expansion

>  <fragmenstein_error>  (113) 


$$$$
C4758-P95
     RDKit          3D

 49 51  0  0  0  0  0  0  0  0999 V2000
   10.8369   -2.9548   14.8077 C   0  0  0  0  0  0  0  0  0  0  0  0
    9.6801   -2.0834   14.7069 N   0  0  0  0  0  0  0  0  0  0  0  0
    8.3227   -2.4287   14.6363 C   0  0  0  0  0  0  0  0  0  0  0  0
    7.5264   -1.4880   13.9664 C   0  0  0  0  0  0  0  0  0  0  0  0
    6.1425   -1.6681   12.6220 C   0  0  0  0  0  0  0  0  0  0  0  0
    4.4634   -2.6637   11.8720 C   0  0  0  0  0  0  0  0  0  0  0  0
    3.0234   -2.1522   10.7219 N   0  0  0  0  0  0  0  0  0  0  0  0
    1.3782   -1.4410   11.1027 C   0  0  0  0  0  0  0  0  0  0  0  0
    0.9524   -1.0841   12.1913 O   0  0  0  0  0  0  0  0  0  0  0  0
    0.4727   -1.5165    9.5579 N   0  0  0  0  0  0  0  0  0  0  0  0
   -1.5049   -1.2159    9.1160 C   0  0  0  0  0  0  0  0  0  0  0  0
   -2.6547   -0.3888    8.3062 C   0  0  0  0  0  0  0  0  0  0  0  0
   -3.9954   -1.1819    8.0452 C   0  0  0  0  0  0  0  0  0  0  0  0
   -5.2965   -0.4164    7.7473 C   0  0  0  0  0  0  0  0  0  0  0  0
   -5.7903   -0.9680    6.4207 C   0  0  0  0  0  0  0  0  0  0  0  0
   -5.1941   -2.3565    6.3811 C   0  0  0  0  0  0  0  0  0  0  0  0
   -3.8624   -2.1623    6.9527 N   0  0  0  0  0  0  0  0  0  0  0  0
    8.4658   -0.2988   14.6299 C   0  0  0  0  0  0  0  0  0  0  0  0
    8.3630    0.9764   15.2685 C   0  0  0  0  0  0  0  0  0  0  0  0
    9.4633    1.8201   15.5095 C   0  0  0  0  0  0  0  0  0  0  0  0
   10.7376    1.3927   15.2266 C   0  0  0  0  0  0  0  0  0  0  0  0
   10.9292    0.0601   14.9276 C   0  0  0  0  0  0  0  0  0  0  0  0
    9.7874   -0.7431   14.7638 C   0  0  0  0  0  0  0  0  0  0  0  0
   11.2761   -2.8468   15.8024 H   0  0  0  0  0  0  0  0  0  0  0  0
   10.5601   -3.9848   14.6264 H   0  0  0  0  0  0  0  0  0  0  0  0
   11.5581   -2.6576   14.0403 H   0  0  0  0  0  0  0  0  0  0  0  0
    8.1974   -3.4000   15.0049 H   0  0  0  0  0  0  0  0  0  0  0  0
    6.0268   -2.4530   13.3968 H   0  0  0  0  0  0  0  0  0  0  0  0
    6.8197   -1.6542   11.7671 H   0  0  0  0  0  0  0  0  0  0  0  0
    4.8098   -3.5091   11.3198 H   0  0  0  0  0  0  0  0  0  0  0  0
    4.2557   -1.6905   11.5722 H   0  0  0  0  0  0  0  0  0  0  0  0
    3.0623   -2.4269    9.7554 H   0  0  0  0  0  0  0  0  0  0  0  0
    1.0989   -1.7629    8.8069 H   0  0  0  0  0  0  0  0  0  0  0  0
   -2.1543   -2.0694    9.2593 H   0  0  0  0  0  0  0  0  0  0  0  0
   -1.4972   -1.6954    8.1408 H   0  0  0  0  0  0  0  0  0  0  0  0
   -2.9423    0.4805    8.8594 H   0  0  0  0  0  0  0  0  0  0  0  0
   -2.2737   -0.2131    7.3122 H   0  0  0  0  0  0  0  0  0  0  0  0
   -4.2119   -1.6843    8.9692 H   0  0  0  0  0  0  0  0  0  0  0  0
   -5.2245    0.6706    7.7498 H   0  0  0  0  0  0  0  0  0  0  0  0
   -6.0398   -0.6663    8.5165 H   0  0  0  0  0  0  0  0  0  0  0  0
   -5.4038   -0.3618    5.5930 H   0  0  0  0  0  0  0  0  0  0  0  0
   -6.8823   -0.9784    6.3562 H   0  0  0  0  0  0  0  0  0  0  0  0
   -5.7802   -3.0508    6.9921 H   0  0  0  0  0  0  0  0  0  0  0  0
   -5.1377   -2.7517    5.3631 H   0  0  0  0  0  0  0  0  0  0  0  0
   -3.4938   -3.0456    7.3028 H   0  0  0  0  0  0  0  0  0  0  0  0
    7.4219    1.3780   15.6198 H   0  0  0  0  0  0  0  0  0  0  0  0
    9.2940    2.8128   15.9217 H   0  0  0  0  0  0  0  0  0  0  0  0
   11.5824    2.0598   15.3536 H   0  0  0  0  0  0  0  0  0  0  0  0
   11.9305   -0.3539   14.8701 H   0  0  0  0  0  0  0  0  0  0  0  0
  1  2  1  0
  2  3  1  0
  3  4  2  0
  4  5  1  0
  5  6  1  0
  6  7  1  0
  7  8  1  0
  8  9  2  0
  8 10  1  0
 10 11  1  0
 11 12  1  0
 12 13  1  0
 13 14  1  0
 14 15  1  0
 15 16  1  0
 16 17  1  0
  4 18  1  0
 18 19  2  0
 19 20  1  0
 20 21  2  0
 21 22  1  0
 22 23  2  0
 23  2  1  0
 17 13  1  0
 23 18  1  0
  1 24  1  0
  1 25  1  0
  1 26  1  0
  3 27  1  0
  5 28  1  0
  5 29  1  0
  6 30  1  0
  6 31  1  0
  7 32  1  0
 10 33  1  0
 11 34  1  0
 11 35  1  0
 12 36  1  0
 12 37  1  0
 13 38  1  0
 14 39  1  0
 14 40  1  0
 15 41  1  0
 15 42  1  0
 16 43  1  0
 16 44  1  0
 17 45  1  0
 19 46  1  0
 20 47  1  0
 21 48  1  0
 22 49  1  0
M  END
>  <Energy>  (114) 
602.38580633097456

>  <compound_id>  (114) 
4758

>  <target_id>  (114) 
1

>  <reference_id>  (114) 
95

>  <inspiration_ids>  (114) 
[93, 95]

>  <energy_score>  (114) 
614.3652229642901

>  <distance_score>  (114) 
6.333001102906179

>  <path>  (114) 
/opt/xchem-fragalysis-2/maxwin/BulkDock/SCRATCH/511018/C4758-P95/C4758-P95.minimised.mol

>  <scratch_subdir>  (114) 
/opt/xchem-fragalysis-2/maxwin/BulkDock/SCRATCH/511018/C4758-P95

>  <fragmenstein_runtime>  (114) 
11.732111930847168

>  <fragmenstein_outcome>  (114) 
too moved

>  <fragmenstein_mode>  (114) 
expansion

>  <fragmenstein_error>  (114) 


$$$$
C4760-P93
     RDKit          3D

 46 48  0  0  0  0  0  0  0  0999 V2000
   -2.0956    0.0256    9.8541 O   0  0  0  0  0  0  0  0  0  0  0  0
   -1.4264   -0.8014    9.3794 C   0  0  0  0  0  0  0  0  0  0  0  0
    0.4900   -1.4282    9.8416 N   0  0  0  0  0  0  0  0  0  0  0  0
    1.9179   -0.8048   11.1621 C   0  0  0  0  0  0  0  0  0  0  0  0
    4.0311   -0.2219   11.2818 C   0  0  0  0  0  0  0  0  0  0  0  0
    5.8546   -0.8192   12.1492 C   0  0  0  0  0  0  0  0  0  0  0  0
    6.0628   -2.1681   12.5605 C   0  0  0  0  0  0  0  0  0  0  0  0
    6.4439   -2.2792   13.8631 N   0  0  0  0  0  0  0  0  0  0  0  0
    7.5844   -1.6509   13.9476 C   0  0  0  0  0  0  0  0  0  0  0  0
    8.5183   -1.9922   14.9230 C   0  0  0  0  0  0  0  0  0  0  0  0
    9.5611   -1.2036   15.2984 C   0  0  0  0  0  0  0  0  0  0  0  0
    9.6871   -0.0451   14.6182 C   0  0  0  0  0  0  0  0  0  0  0  0
    8.9061    0.1963   13.4090 C   0  0  0  0  0  0  0  0  0  0  0  0
   10.2878    1.4508   12.5489 Br  0  0  0  0  0  0  0  0  0  0  0  0
    7.5568   -0.6462   12.9157 C   0  0  0  0  0  0  0  0  0  0  0  0
   -2.0860   -1.7593    8.2129 N   0  0  0  0  0  0  0  0  0  0  0  0
   -3.4559   -1.8648    7.6797 C   0  0  0  0  0  0  0  0  0  0  0  0
   -4.4490   -0.7464    7.3464 C   0  0  0  0  0  0  0  0  0  0  0  0
   -5.9078   -1.1546    6.9872 C   0  0  0  0  0  0  0  0  0  0  0  0
   -6.9584   -0.6904    7.9846 C   0  0  0  0  0  0  0  0  0  0  0  0
   -8.1965   -1.4759    7.5768 C   0  0  0  0  0  0  0  0  0  0  0  0
   -7.6635   -2.7163    6.8759 C   0  0  0  0  0  0  0  0  0  0  0  0
   -6.2023   -2.5845    6.8821 N   0  0  0  0  0  0  0  0  0  0  0  0
    0.8365   -2.1100    9.1976 H   0  0  0  0  0  0  0  0  0  0  0  0
    1.4648   -0.7206   12.1838 H   0  0  0  0  0  0  0  0  0  0  0  0
    2.2134   -1.8462   10.9259 H   0  0  0  0  0  0  0  0  0  0  0  0
    4.1181   -1.2923   11.4180 H   0  0  0  0  0  0  0  0  0  0  0  0
    4.2880    0.4225   10.4381 H   0  0  0  0  0  0  0  0  0  0  0  0
    5.3796   -2.9969   12.3350 H   0  0  0  0  0  0  0  0  0  0  0  0
    6.1325   -2.9980   14.4948 H   0  0  0  0  0  0  0  0  0  0  0  0
    8.4222   -3.0141   15.2247 H   0  0  0  0  0  0  0  0  0  0  0  0
   10.3403   -1.5334   15.9677 H   0  0  0  0  0  0  0  0  0  0  0  0
   10.5429    0.5712   14.8924 H   0  0  0  0  0  0  0  0  0  0  0  0
   -1.3916   -2.3221    7.8718 H   0  0  0  0  0  0  0  0  0  0  0  0
   -3.8847   -2.0279    8.6526 H   0  0  0  0  0  0  0  0  0  0  0  0
   -3.6294   -2.8210    7.1938 H   0  0  0  0  0  0  0  0  0  0  0  0
   -4.4717   -0.0176    8.1661 H   0  0  0  0  0  0  0  0  0  0  0  0
   -4.0738   -0.2417    6.4746 H   0  0  0  0  0  0  0  0  0  0  0  0
   -6.1568   -0.6776    6.0281 H   0  0  0  0  0  0  0  0  0  0  0  0
   -7.1314    0.3895    7.9374 H   0  0  0  0  0  0  0  0  0  0  0  0
   -6.6707   -0.9403    9.0090 H   0  0  0  0  0  0  0  0  0  0  0  0
   -8.8241   -1.7195    8.4379 H   0  0  0  0  0  0  0  0  0  0  0  0
   -8.8015   -0.8845    6.8794 H   0  0  0  0  0  0  0  0  0  0  0  0
   -7.9659   -3.6341    7.3894 H   0  0  0  0  0  0  0  0  0  0  0  0
   -8.0408   -2.7629    5.8481 H   0  0  0  0  0  0  0  0  0  0  0  0
   -5.8208   -2.9991    6.0378 H   0  0  0  0  0  0  0  0  0  0  0  0
  1  2  2  0
  2  3  1  0
  3  4  1  0
  4  5  1  0
  5  6  1  0
  6  7  2  0
  7  8  1  0
  8  9  1  0
  9 10  2  0
 10 11  1  0
 11 12  2  0
 12 13  1  0
 13 14  1  0
 13 15  2  0
  2 16  1  0
 16 17  1  0
 17 18  1  0
 18 19  1  0
 19 20  1  0
 20 21  1  0
 21 22  1  0
 22 23  1  0
 15  6  1  0
 23 19  1  0
 15  9  1  0
  3 24  1  0
  4 25  1  0
  4 26  1  0
  5 27  1  0
  5 28  1  0
  7 29  1  0
  8 30  1  0
 10 31  1  0
 11 32  1  0
 12 33  1  0
 16 34  1  0
 17 35  1  0
 17 36  1  0
 18 37  1  0
 18 38  1  0
 19 39  1  0
 20 40  1  0
 20 41  1  0
 21 42  1  0
 21 43  1  0
 22 44  1  0
 22 45  1  0
 23 46  1  0
M  END
>  <Energy>  (115) 
774.90938958946435

>  <compound_id>  (115) 
4760

>  <target_id>  (115) 
1

>  <reference_id>  (115) 
93

>  <inspiration_ids>  (115) 
[93, 95]

>  <energy_score>  (115) 
802.6188797854215

>  <distance_score>  (115) 
6.149640797273348

>  <path>  (115) 
/opt/xchem-fragalysis-2/maxwin/BulkDock/SCRATCH/511018/C4760-P93/C4760-P93.minimised.mol

>  <scratch_subdir>  (115) 
/opt/xchem-fragalysis-2/maxwin/BulkDock/SCRATCH/511018/C4760-P93

>  <fragmenstein_runtime>  (115) 
9.7403564453125

>  <fragmenstein_outcome>  (115) 
too moved

>  <fragmenstein_mode>  (115) 
expansion

>  <fragmenstein_error>  (115) 


$$$$
C4760-P95
     RDKit          3D

 46 48  0  0  0  0  0  0  0  0999 V2000
    2.2354    5.3431   12.1627 O   0  0  0  0  0  0  0  0  0  0  0  0
    2.1539    4.5657   11.2883 C   0  0  0  0  0  0  0  0  0  0  0  0
    3.0546    3.3947   10.9402 N   0  0  0  0  0  0  0  0  0  0  0  0
    4.3518    2.9502   11.5403 C   0  0  0  0  0  0  0  0  0  0  0  0
    4.4477    1.3597   12.1527 C   0  0  0  0  0  0  0  0  0  0  0  0
    5.9428   -0.1194   12.4534 C   0  0  0  0  0  0  0  0  0  0  0  0
    6.2069   -1.4499   12.2506 C   0  0  0  0  0  0  0  0  0  0  0  0
    6.5022   -1.8525   13.5639 N   0  0  0  0  0  0  0  0  0  0  0  0
    7.6801   -1.3165   13.8942 C   0  0  0  0  0  0  0  0  0  0  0  0
    8.5751   -1.7445   14.8682 C   0  0  0  0  0  0  0  0  0  0  0  0
    9.6420   -0.9571   15.2341 C   0  0  0  0  0  0  0  0  0  0  0  0
    9.8287    0.2332   14.5785 C   0  0  0  0  0  0  0  0  0  0  0  0
    9.0028    0.6144   13.4702 C   0  0  0  0  0  0  0  0  0  0  0  0
   10.1084    1.8816   12.4531 Br  0  0  0  0  0  0  0  0  0  0  0  0
    7.7518   -0.1932   13.0039 C   0  0  0  0  0  0  0  0  0  0  0  0
    1.1206    4.4581   10.1782 N   0  0  0  0  0  0  0  0  0  0  0  0
   -0.1232    5.2316    9.9366 C   0  0  0  0  0  0  0  0  0  0  0  0
   -0.8239    5.0087    8.5715 C   0  0  0  0  0  0  0  0  0  0  0  0
   -2.3087    5.4257    8.3917 C   0  0  0  0  0  0  0  0  0  0  0  0
   -3.3596    4.9667    9.4128 C   0  0  0  0  0  0  0  0  0  0  0  0
   -4.3041    4.0396    8.6601 C   0  0  0  0  0  0  0  0  0  0  0  0
   -4.2083    4.5550    7.2445 C   0  0  0  0  0  0  0  0  0  0  0  0
   -2.7813    4.8591    7.1072 N   0  0  0  0  0  0  0  0  0  0  0  0
    2.7457    2.9818   10.0810 H   0  0  0  0  0  0  0  0  0  0  0  0
    4.5132    3.6669   12.3469 H   0  0  0  0  0  0  0  0  0  0  0  0
    5.0542    3.1611   10.7310 H   0  0  0  0  0  0  0  0  0  0  0  0
    3.5565    1.3922   12.8202 H   0  0  0  0  0  0  0  0  0  0  0  0
    3.9185    0.9269   11.2215 H   0  0  0  0  0  0  0  0  0  0  0  0
    6.9108   -1.7715   11.4936 H   0  0  0  0  0  0  0  0  0  0  0  0
    6.0832   -2.6301   14.0433 H   0  0  0  0  0  0  0  0  0  0  0  0
    8.4245   -2.7368   15.2473 H   0  0  0  0  0  0  0  0  0  0  0  0
   10.3723   -1.3008   15.9561 H   0  0  0  0  0  0  0  0  0  0  0  0
   10.7127    0.8135   14.8392 H   0  0  0  0  0  0  0  0  0  0  0  0
    1.3881    3.7274    9.5457 H   0  0  0  0  0  0  0  0  0  0  0  0
    0.1369    6.2896   10.0524 H   0  0  0  0  0  0  0  0  0  0  0  0
   -0.7860    4.9892   10.7715 H   0  0  0  0  0  0  0  0  0  0  0  0
   -0.7268    3.9765    8.2881 H   0  0  0  0  0  0  0  0  0  0  0  0
   -0.2289    5.5415    7.8156 H   0  0  0  0  0  0  0  0  0  0  0  0
   -2.3445    6.5215    8.3375 H   0  0  0  0  0  0  0  0  0  0  0  0
   -3.9325    5.8464    9.7369 H   0  0  0  0  0  0  0  0  0  0  0  0
   -2.9649    4.5160   10.3215 H   0  0  0  0  0  0  0  0  0  0  0  0
   -3.9532    3.0070    8.7190 H   0  0  0  0  0  0  0  0  0  0  0  0
   -5.3236    4.0792    9.0542 H   0  0  0  0  0  0  0  0  0  0  0  0
   -4.5431    3.8230    6.5059 H   0  0  0  0  0  0  0  0  0  0  0  0
   -4.8013    5.4689    7.1218 H   0  0  0  0  0  0  0  0  0  0  0  0
   -2.6371    5.5241    6.3472 H   0  0  0  0  0  0  0  0  0  0  0  0
  1  2  2  0
  2  3  1  0
  3  4  1  0
  4  5  1  0
  5  6  1  0
  6  7  2  0
  7  8  1  0
  8  9  1  0
  9 10  2  0
 10 11  1  0
 11 12  2  0
 12 13  1  0
 13 14  1  0
 13 15  2  0
  2 16  1  0
 16 17  1  0
 17 18  1  0
 18 19  1  0
 19 20  1  0
 20 21  1  0
 21 22  1  0
 22 23  1  0
 15  6  1  0
 23 19  1  0
 15  9  1  0
  3 24  1  0
  4 25  1  0
  4 26  1  0
  5 27  1  0
  5 28  1  0
  7 29  1  0
  8 30  1  0
 10 31  1  0
 11 32  1  0
 12 33  1  0
 16 34  1  0
 17 35  1  0
 17 36  1  0
 18 37  1  0
 18 38  1  0
 19 39  1  0
 20 40  1  0
 20 41  1  0
 21 42  1  0
 21 43  1  0
 22 44  1  0
 22 45  1  0
 23 46  1  0
M  END
>  <Energy>  (116) 
295.84413941671079

>  <compound_id>  (116) 
4760

>  <target_id>  (116) 
1

>  <reference_id>  (116) 
95

>  <inspiration_ids>  (116) 
[93, 95]

>  <energy_score>  (116) 
323.5536296126745

>  <distance_score>  (116) 
8.839492488152064

>  <path>  (116) 
/opt/xchem-fragalysis-2/maxwin/BulkDock/SCRATCH/511018/C4760-P95/C4760-P95.minimised.mol

>  <scratch_subdir>  (116) 
/opt/xchem-fragalysis-2/maxwin/BulkDock/SCRATCH/511018/C4760-P95

>  <fragmenstein_runtime>  (116) 
16.745254039764404

>  <fragmenstein_outcome>  (116) 
too moved

>  <fragmenstein_mode>  (116) 
expansion

>  <fragmenstein_error>  (116) 


$$$$
C4763-P93
     RDKit          3D

 30 32  0  0  0  0  0  0  0  0999 V2000
    3.6869   -2.6285   11.5449 O   0  0  0  0  0  0  0  0  0  0  0  0
    4.3739   -3.4401   12.2060 C   0  0  0  0  0  0  0  0  0  0  0  0
    5.8796   -2.6815   13.1458 C   0  0  0  0  0  0  0  0  0  0  0  0
    6.5797   -1.6428   12.5094 C   0  0  0  0  0  0  0  0  0  0  0  0
    7.6428   -1.3817   13.2590 N   0  0  0  0  0  0  0  0  0  0  0  0
    7.9971   -2.4431   14.1718 C   0  0  0  0  0  0  0  0  0  0  0  0
    9.2750   -2.3761   14.8701 C   0  0  0  0  0  0  0  0  0  0  0  0
    9.5589   -1.1674   15.4600 C   0  0  0  0  0  0  0  0  0  0  0  0
    8.4550   -0.5284   15.8989 C   0  0  0  0  0  0  0  0  0  0  0  0
    7.1915   -1.2100   15.6810 C   0  0  0  0  0  0  0  0  0  0  0  0
    6.7126   -2.4133   14.7006 C   0  0  0  0  0  0  0  0  0  0  0  0
    3.2231   -4.8697   11.7732 C   0  0  0  0  0  0  0  0  0  0  0  0
    2.7590   -6.5040   11.8352 C   0  0  0  0  0  0  0  0  0  0  0  0
    1.7937   -7.1065   10.3373 C   0  0  0  0  0  0  0  0  0  0  0  0
    1.6229   -5.4652    9.2177 C   0  0  0  0  0  0  0  0  0  0  0  0
    2.7282   -4.4683   10.2540 N   0  0  0  0  0  0  0  0  0  0  0  0
    6.4891   -1.0728   11.6032 H   0  0  0  0  0  0  0  0  0  0  0  0
    8.3805   -0.7575   12.9748 H   0  0  0  0  0  0  0  0  0  0  0  0
   10.1134   -3.0001   14.5594 H   0  0  0  0  0  0  0  0  0  0  0  0
   10.5719   -0.8492   15.6682 H   0  0  0  0  0  0  0  0  0  0  0  0
    8.5067    0.3555   16.5282 H   0  0  0  0  0  0  0  0  0  0  0  0
    6.5491   -0.8357   16.4867 H   0  0  0  0  0  0  0  0  0  0  0  0
    2.4356   -4.4989   12.4425 H   0  0  0  0  0  0  0  0  0  0  0  0
    3.6348   -7.1589   11.9268 H   0  0  0  0  0  0  0  0  0  0  0  0
    2.1096   -6.6811   12.7005 H   0  0  0  0  0  0  0  0  0  0  0  0
    0.8005   -7.4600   10.6598 H   0  0  0  0  0  0  0  0  0  0  0  0
    2.3090   -7.9886    9.9230 H   0  0  0  0  0  0  0  0  0  0  0  0
    0.5651   -5.2134    9.0628 H   0  0  0  0  0  0  0  0  0  0  0  0
    1.8616   -5.4094    8.1304 H   0  0  0  0  0  0  0  0  0  0  0  0
    2.8056   -3.4676   10.0834 H   0  0  0  0  0  0  0  0  0  0  0  0
  1  2  2  0
  2  3  1  0
  3  4  2  0
  4  5  1  0
  5  6  1  0
  6  7  2  0
  7  8  1  0
  8  9  2  0
  9 10  1  0
 10 11  2  0
  2 12  1  0
 12 13  1  0
 13 14  1  0
 14 15  1  0
 15 16  1  0
 11  3  1  0
 16 12  1  0
 11  6  1  0
  4 17  1  0
  5 18  1  0
  7 19  1  0
  8 20  1  0
  9 21  1  0
 10 22  1  0
 12 23  1  0
 13 24  1  0
 13 25  1  0
 14 26  1  0
 14 27  1  0
 15 28  1  0
 15 29  1  0
 16 30  1  0
M  END
>  <Energy>  (117) 
596.77973936756916

>  <compound_id>  (117) 
4763

>  <target_id>  (117) 
1

>  <reference_id>  (117) 
93

>  <inspiration_ids>  (117) 
[93, 95]

>  <energy_score>  (117) 
495.5593021374592

>  <distance_score>  (117) 
9.506046046637827

>  <path>  (117) 
/opt/xchem-fragalysis-2/maxwin/BulkDock/SCRATCH/511018/C4763-P93/C4763-P93.minimised.mol

>  <scratch_subdir>  (117) 
/opt/xchem-fragalysis-2/maxwin/BulkDock/SCRATCH/511018/C4763-P93

>  <fragmenstein_runtime>  (117) 
6.560733079910278

>  <fragmenstein_outcome>  (117) 
too moved

>  <fragmenstein_mode>  (117) 
expansion

>  <fragmenstein_error>  (117) 


$$$$
C4763-P95
     RDKit          3D

 30 32  0  0  0  0  0  0  0  0999 V2000
    3.9138   -3.7104   11.0733 O   0  0  0  0  0  0  0  0  0  0  0  0
    3.6847   -2.4759   11.1591 C   0  0  0  0  0  0  0  0  0  0  0  0
    5.4803   -2.1502   11.9898 C   0  0  0  0  0  0  0  0  0  0  0  0
    6.2491   -0.9463   11.7033 C   0  0  0  0  0  0  0  0  0  0  0  0
    7.4597   -1.1132   12.0416 N   0  0  0  0  0  0  0  0  0  0  0  0
    7.5546   -1.1499   13.3478 C   0  0  0  0  0  0  0  0  0  0  0  0
    8.5584   -0.5283   14.2102 C   0  0  0  0  0  0  0  0  0  0  0  0
    8.3080   -0.4731   15.5061 C   0  0  0  0  0  0  0  0  0  0  0  0
    7.1262   -1.0867   15.7018 C   0  0  0  0  0  0  0  0  0  0  0  0
    6.2969   -2.0592   14.7589 C   0  0  0  0  0  0  0  0  0  0  0  0
    6.4132   -1.9135   13.4544 C   0  0  0  0  0  0  0  0  0  0  0  0
    1.9697   -1.6021   10.2072 C   0  0  0  0  0  0  0  0  0  0  0  0
    1.2681   -2.2253    8.3454 C   0  0  0  0  0  0  0  0  0  0  0  0
   -0.4724   -2.5471    7.6426 C   0  0  0  0  0  0  0  0  0  0  0  0
   -1.4426   -1.5187    8.8437 C   0  0  0  0  0  0  0  0  0  0  0  0
    0.0485   -1.3294   10.1707 N   0  0  0  0  0  0  0  0  0  0  0  0
    6.3725   -0.4813   10.7404 H   0  0  0  0  0  0  0  0  0  0  0  0
    7.7293   -1.9327   11.5719 H   0  0  0  0  0  0  0  0  0  0  0  0
    9.3703    0.0685   13.7979 H   0  0  0  0  0  0  0  0  0  0  0  0
    8.8318    0.1518   16.2089 H   0  0  0  0  0  0  0  0  0  0  0  0
    6.6172   -0.7296   16.6145 H   0  0  0  0  0  0  0  0  0  0  0  0
    5.3461   -2.5266   15.0218 H   0  0  0  0  0  0  0  0  0  0  0  0
    1.5396   -1.5947   11.2019 H   0  0  0  0  0  0  0  0  0  0  0  0
    0.9146   -3.3331    8.3918 H   0  0  0  0  0  0  0  0  0  0  0  0
    2.2887   -2.7632    8.2461 H   0  0  0  0  0  0  0  0  0  0  0  0
   -0.7759   -3.6024    7.6643 H   0  0  0  0  0  0  0  0  0  0  0  0
   -0.5741   -2.1727    6.6115 H   0  0  0  0  0  0  0  0  0  0  0  0
   -1.9276   -0.6023    8.4644 H   0  0  0  0  0  0  0  0  0  0  0  0
   -2.3095   -2.1682    9.0152 H   0  0  0  0  0  0  0  0  0  0  0  0
    0.3344   -0.6625    9.4410 H   0  0  0  0  0  0  0  0  0  0  0  0
  1  2  2  0
  2  3  1  0
  3  4  2  0
  4  5  1  0
  5  6  1  0
  6  7  2  0
  7  8  1  0
  8  9  2  0
  9 10  1  0
 10 11  2  0
  2 12  1  0
 12 13  1  0
 13 14  1  0
 14 15  1  0
 15 16  1  0
 11  3  1  0
 16 12  1  0
 11  6  1  0
  4 17  1  0
  5 18  1  0
  7 19  1  0
  8 20  1  0
  9 21  1  0
 10 22  1  0
 12 23  1  0
 13 24  1  0
 13 25  1  0
 14 26  1  0
 14 27  1  0
 15 28  1  0
 15 29  1  0
 16 30  1  0
M  END
>  <Energy>  (118) 
974.80495130278609

>  <compound_id>  (118) 
4763

>  <target_id>  (118) 
1

>  <reference_id>  (118) 
95

>  <inspiration_ids>  (118) 
[93, 95]

>  <energy_score>  (118) 
873.584514072684

>  <distance_score>  (118) 
8.38366843006177

>  <path>  (118) 
/opt/xchem-fragalysis-2/maxwin/BulkDock/SCRATCH/511018/C4763-P95/C4763-P95.minimised.mol

>  <scratch_subdir>  (118) 
/opt/xchem-fragalysis-2/maxwin/BulkDock/SCRATCH/511018/C4763-P95

>  <fragmenstein_runtime>  (118) 
5.281692743301392

>  <fragmenstein_outcome>  (118) 
too moved

>  <fragmenstein_mode>  (118) 
expansion

>  <fragmenstein_error>  (118) 


$$$$
C4765-P93
     RDKit          3D

 30 32  0  0  0  0  0  0  0  0999 V2000
    2.5443   -2.6548   10.4889 O   0  0  0  0  0  0  0  0  0  0  0  0
    2.7598   -3.8334   10.2599 C   0  0  0  0  0  0  0  0  0  0  0  0
    3.9851   -3.7397   11.7878 C   0  0  0  0  0  0  0  0  0  0  0  0
    3.5041   -3.6133   13.2042 C   0  0  0  0  0  0  0  0  0  0  0  0
    4.7832   -3.1316   14.4144 N   0  0  0  0  0  0  0  0  0  0  0  0
    5.9630   -2.8030   13.8680 C   0  0  0  0  0  0  0  0  0  0  0  0
    7.1365   -2.3821   14.5143 C   0  0  0  0  0  0  0  0  0  0  0  0
    7.6194   -2.9542   15.5743 F   0  0  0  0  0  0  0  0  0  0  0  0
    7.9045   -1.4053   14.0900 C   0  0  0  0  0  0  0  0  0  0  0  0
    7.5256   -0.9710   12.8689 C   0  0  0  0  0  0  0  0  0  0  0  0
    6.5542   -1.5940   12.0934 C   0  0  0  0  0  0  0  0  0  0  0  0
    5.5370   -2.7873   12.4642 C   0  0  0  0  0  0  0  0  0  0  0  0
    1.3318   -4.3234    8.7119 C   0  0  0  0  0  0  0  0  0  0  0  0
   -0.2318   -5.5165    7.8588 C   0  0  0  0  0  0  0  0  0  0  0  0
   -1.9951   -4.3730    7.1020 C   0  0  0  0  0  0  0  0  0  0  0  0
   -1.6320   -2.3587    7.9555 C   0  0  0  0  0  0  0  0  0  0  0  0
    0.3921   -2.5556    8.6985 N   0  0  0  0  0  0  0  0  0  0  0  0
    2.6153   -3.9356   13.7308 H   0  0  0  0  0  0  0  0  0  0  0  0
    4.7353   -3.5217   15.3520 H   0  0  0  0  0  0  0  0  0  0  0  0
    8.7549   -1.0284   14.6397 H   0  0  0  0  0  0  0  0  0  0  0  0
    8.0994   -0.1652   12.4751 H   0  0  0  0  0  0  0  0  0  0  0  0
    6.5047   -1.0272   11.1569 H   0  0  0  0  0  0  0  0  0  0  0  0
    2.1117   -4.1706    7.9906 H   0  0  0  0  0  0  0  0  0  0  0  0
   -0.0061   -6.2617    7.0382 H   0  0  0  0  0  0  0  0  0  0  0  0
   -0.3655   -6.3161    8.6490 H   0  0  0  0  0  0  0  0  0  0  0  0
   -3.0427   -4.6474    7.4161 H   0  0  0  0  0  0  0  0  0  0  0  0
   -1.8555   -4.8926    6.1189 H   0  0  0  0  0  0  0  0  0  0  0  0
   -2.3879   -2.1189    8.7129 H   0  0  0  0  0  0  0  0  0  0  0  0
   -1.5074   -1.5268    7.2506 H   0  0  0  0  0  0  0  0  0  0  0  0
    1.0304   -1.7934    8.3964 H   0  0  0  0  0  0  0  0  0  0  0  0
  1  2  2  0
  2  3  1  0
  3  4  2  0
  4  5  1  0
  5  6  1  0
  6  7  2  0
  7  8  1  0
  7  9  1  0
  9 10  2  0
 10 11  1  0
 11 12  2  0
  2 13  1  0
 13 14  1  0
 14 15  1  0
 15 16  1  0
 16 17  1  0
 12  3  1  0
 17 13  1  0
 12  6  1  0
  4 18  1  0
  5 19  1  0
  9 20  1  0
 10 21  1  0
 11 22  1  0
 13 23  1  0
 14 24  1  0
 14 25  1  0
 15 26  1  0
 15 27  1  0
 16 28  1  0
 16 29  1  0
 17 30  1  0
M  END
>  <Energy>  (119) 
1196.3196009034823

>  <compound_id>  (119) 
4765

>  <target_id>  (119) 
1

>  <reference_id>  (119) 
93

>  <inspiration_ids>  (119) 
[93, 95]

>  <energy_score>  (119) 
1097.8544367084507

>  <distance_score>  (119) 
8.55509547262505

>  <path>  (119) 
/opt/xchem-fragalysis-2/maxwin/BulkDock/SCRATCH/511018/C4765-P93/C4765-P93.minimised.mol

>  <scratch_subdir>  (119) 
/opt/xchem-fragalysis-2/maxwin/BulkDock/SCRATCH/511018/C4765-P93

>  <fragmenstein_runtime>  (119) 
5.012709856033325

>  <fragmenstein_outcome>  (119) 
too moved

>  <fragmenstein_mode>  (119) 
expansion

>  <fragmenstein_error>  (119) 


$$$$
C4765-P95
     RDKit          3D

 30 32  0  0  0  0  0  0  0  0999 V2000
    2.7099   -1.9105   10.9344 O   0  0  0  0  0  0  0  0  0  0  0  0
    3.6674   -2.6043   10.5400 C   0  0  0  0  0  0  0  0  0  0  0  0
    5.2634   -2.6220   11.8270 C   0  0  0  0  0  0  0  0  0  0  0  0
    6.4993   -1.5577   11.6787 C   0  0  0  0  0  0  0  0  0  0  0  0
    7.0930   -0.9430   12.7073 N   0  0  0  0  0  0  0  0  0  0  0  0
    6.6294   -1.2570   13.9672 C   0  0  0  0  0  0  0  0  0  0  0  0
    7.4844   -0.7650   15.2438 C   0  0  0  0  0  0  0  0  0  0  0  0
    7.0649    0.2471   16.0130 F   0  0  0  0  0  0  0  0  0  0  0  0
    8.7867   -1.0970   15.3025 C   0  0  0  0  0  0  0  0  0  0  0  0
    8.8835   -2.2743   14.7019 C   0  0  0  0  0  0  0  0  0  0  0  0
    7.5864   -2.7979   14.1980 C   0  0  0  0  0  0  0  0  0  0  0  0
    6.0692   -2.4456   13.6131 C   0  0  0  0  0  0  0  0  0  0  0  0
    3.0674   -2.9803    8.5222 C   0  0  0  0  0  0  0  0  0  0  0  0
    1.4318   -2.4899    8.0286 C   0  0  0  0  0  0  0  0  0  0  0  0
    0.6565   -1.8852    6.4600 C   0  0  0  0  0  0  0  0  0  0  0  0
    1.4886   -2.0420    5.2862 C   0  0  0  0  0  0  0  0  0  0  0  0
    2.6848   -1.9860    6.8544 N   0  0  0  0  0  0  0  0  0  0  0  0
    6.8689   -0.9972   10.8362 H   0  0  0  0  0  0  0  0  0  0  0  0
    7.9275   -0.3865   12.5889 H   0  0  0  0  0  0  0  0  0  0  0  0
    9.5423   -0.6135   15.8910 H   0  0  0  0  0  0  0  0  0  0  0  0
    9.7757   -2.8892   14.7557 H   0  0  0  0  0  0  0  0  0  0  0  0
    7.2161   -3.1810   15.1389 H   0  0  0  0  0  0  0  0  0  0  0  0
    3.3893   -3.9064    8.0807 H   0  0  0  0  0  0  0  0  0  0  0  0
    1.2072   -1.7216    8.7868 H   0  0  0  0  0  0  0  0  0  0  0  0
    1.0939   -3.4810    8.2064 H   0  0  0  0  0  0  0  0  0  0  0  0
    0.1825   -2.6615    6.1181 H   0  0  0  0  0  0  0  0  0  0  0  0
   -0.3480   -1.4563    6.3637 H   0  0  0  0  0  0  0  0  0  0  0  0
    1.3607   -1.3947    4.3705 H   0  0  0  0  0  0  0  0  0  0  0  0
    1.7068   -2.9150    4.5839 H   0  0  0  0  0  0  0  0  0  0  0  0
    2.5905   -0.9672    6.9445 H   0  0  0  0  0  0  0  0  0  0  0  0
  1  2  2  0
  2  3  1  0
  3  4  2  0
  4  5  1  0
  5  6  1  0
  6  7  2  0
  7  8  1  0
  7  9  1  0
  9 10  2  0
 10 11  1  0
 11 12  2  0
  2 13  1  0
 13 14  1  0
 14 15  1  0
 15 16  1  0
 16 17  1  0
 12  3  1  0
 17 13  1  0
 12  6  1  0
  4 18  1  0
  5 19  1  0
  9 20  1  0
 10 21  1  0
 11 22  1  0
 13 23  1  0
 14 24  1  0
 14 25  1  0
 15 26  1  0
 15 27  1  0
 16 28  1  0
 16 29  1  0
 17 30  1  0
M  END
>  <Energy>  (120) 
1091.0052971849368

>  <compound_id>  (120) 
4765

>  <target_id>  (120) 
1

>  <reference_id>  (120) 
95

>  <inspiration_ids>  (120) 
[93, 95]

>  <energy_score>  (120) 
992.540132989916

>  <distance_score>  (120) 
9.017381271159834

>  <path>  (120) 
/opt/xchem-fragalysis-2/maxwin/BulkDock/SCRATCH/511018/C4765-P95/C4765-P95.minimised.mol

>  <scratch_subdir>  (120) 
/opt/xchem-fragalysis-2/maxwin/BulkDock/SCRATCH/511018/C4765-P95

>  <fragmenstein_runtime>  (120) 
5.006484746932983

>  <fragmenstein_outcome>  (120) 
too moved

>  <fragmenstein_mode>  (120) 
expansion

>  <fragmenstein_error>  (120) 


$$$$
C4766-P93
     RDKit          3D

 30 32  0  0  0  0  0  0  0  0999 V2000
    2.3398   -2.4747   10.5040 O   0  0  0  0  0  0  0  0  0  0  0  0
    2.7894   -3.5366   10.0686 C   0  0  0  0  0  0  0  0  0  0  0  0
    4.0057   -3.5981   11.6481 C   0  0  0  0  0  0  0  0  0  0  0  0
    3.5575   -3.5577   13.0893 C   0  0  0  0  0  0  0  0  0  0  0  0
    4.8052   -3.0840   14.3488 N   0  0  0  0  0  0  0  0  0  0  0  0
    6.0261   -2.7641   13.8360 C   0  0  0  0  0  0  0  0  0  0  0  0
    7.1733   -2.2010   14.4948 C   0  0  0  0  0  0  0  0  0  0  0  0
    8.5738   -2.9879   14.9148 Cl  0  0  0  0  0  0  0  0  0  0  0  0
    7.8592   -1.1675   14.0021 C   0  0  0  0  0  0  0  0  0  0  0  0
    7.5112   -0.8642   12.7479 C   0  0  0  0  0  0  0  0  0  0  0  0
    6.5738   -1.5505   12.0235 C   0  0  0  0  0  0  0  0  0  0  0  0
    5.5808   -2.7327   12.4301 C   0  0  0  0  0  0  0  0  0  0  0  0
    1.4422   -3.9062    8.4072 C   0  0  0  0  0  0  0  0  0  0  0  0
   -0.1345   -5.3428    7.9153 C   0  0  0  0  0  0  0  0  0  0  0  0
   -1.8956   -4.2976    6.9769 C   0  0  0  0  0  0  0  0  0  0  0  0
   -1.2467   -2.1399    7.0628 C   0  0  0  0  0  0  0  0  0  0  0  0
    0.8566   -2.2430    7.3740 N   0  0  0  0  0  0  0  0  0  0  0  0
    2.6612   -3.8704   13.6084 H   0  0  0  0  0  0  0  0  0  0  0  0
    4.7497   -3.4959   15.2747 H   0  0  0  0  0  0  0  0  0  0  0  0
    8.6961   -0.6499   14.4762 H   0  0  0  0  0  0  0  0  0  0  0  0
    8.0876   -0.0952   12.3194 H   0  0  0  0  0  0  0  0  0  0  0  0
    6.5210   -1.0200   11.0653 H   0  0  0  0  0  0  0  0  0  0  0  0
    0.9706   -2.9875    8.7899 H   0  0  0  0  0  0  0  0  0  0  0  0
   -0.1506   -6.0289    8.8086 H   0  0  0  0  0  0  0  0  0  0  0  0
    0.0264   -6.2090    7.1797 H   0  0  0  0  0  0  0  0  0  0  0  0
   -2.9376   -4.3260    7.4168 H   0  0  0  0  0  0  0  0  0  0  0  0
   -1.8541   -4.9797    6.0762 H   0  0  0  0  0  0  0  0  0  0  0  0
   -1.7199   -1.6890    7.9660 H   0  0  0  0  0  0  0  0  0  0  0  0
   -0.9563   -1.3845    6.2859 H   0  0  0  0  0  0  0  0  0  0  0  0
    1.3241   -2.2765    6.4760 H   0  0  0  0  0  0  0  0  0  0  0  0
  1  2  2  0
  2  3  1  0
  3  4  2  0
  4  5  1  0
  5  6  1  0
  6  7  2  0
  7  8  1  0
  7  9  1  0
  9 10  2  0
 10 11  1  0
 11 12  2  0
  2 13  1  0
 13 14  1  0
 14 15  1  0
 15 16  1  0
 16 17  1  0
 12  3  1  0
 17 13  1  0
 12  6  1  0
  4 18  1  0
  5 19  1  0
  9 20  1  0
 10 21  1  0
 11 22  1  0
 13 23  1  0
 14 24  1  0
 14 25  1  0
 15 26  1  0
 15 27  1  0
 16 28  1  0
 16 29  1  0
 17 30  1  0
M  END
>  <Energy>  (121) 
1331.3325780630144

>  <compound_id>  (121) 
4766

>  <target_id>  (121) 
1

>  <reference_id>  (121) 
93

>  <inspiration_ids>  (121) 
[93, 95]

>  <energy_score>  (121) 
1228.4388630475287

>  <distance_score>  (121) 
8.649644679364044

>  <path>  (121) 
/opt/xchem-fragalysis-2/maxwin/BulkDock/SCRATCH/511018/C4766-P93/C4766-P93.minimised.mol

>  <scratch_subdir>  (121) 
/opt/xchem-fragalysis-2/maxwin/BulkDock/SCRATCH/511018/C4766-P93

>  <fragmenstein_runtime>  (121) 
4.984597206115723

>  <fragmenstein_outcome>  (121) 
too moved

>  <fragmenstein_mode>  (121) 
expansion

>  <fragmenstein_error>  (121) 


$$$$
C4766-P95
     RDKit          3D

 30 32  0  0  0  0  0  0  0  0999 V2000
    3.7099   -3.2544   12.4051 O   0  0  0  0  0  0  0  0  0  0  0  0
    4.8128   -3.0777   11.7965 C   0  0  0  0  0  0  0  0  0  0  0  0
    6.0873   -2.1120   12.8427 C   0  0  0  0  0  0  0  0  0  0  0  0
    6.0871   -2.3998   14.2363 C   0  0  0  0  0  0  0  0  0  0  0  0
    7.3584   -2.3707   14.7114 N   0  0  0  0  0  0  0  0  0  0  0  0
    7.8795   -1.2471   14.2791 C   0  0  0  0  0  0  0  0  0  0  0  0
    8.8865   -0.4203   14.8463 C   0  0  0  0  0  0  0  0  0  0  0  0
    9.3807   -0.4734   16.4451 Cl  0  0  0  0  0  0  0  0  0  0  0  0
    9.4658    0.5815   14.1451 C   0  0  0  0  0  0  0  0  0  0  0  0
    8.9801    0.7098   12.8908 C   0  0  0  0  0  0  0  0  0  0  0  0
    7.8127   -0.1321   12.3358 C   0  0  0  0  0  0  0  0  0  0  0  0
    7.2110   -1.1667   13.0153 C   0  0  0  0  0  0  0  0  0  0  0  0
    4.4550   -4.2344   10.2985 C   0  0  0  0  0  0  0  0  0  0  0  0
    5.3898   -4.6198    8.7009 C   0  0  0  0  0  0  0  0  0  0  0  0
    4.3980   -4.5955    7.4593 C   0  0  0  0  0  0  0  0  0  0  0  0
    3.2188   -3.8441    8.0612 C   0  0  0  0  0  0  0  0  0  0  0  0
    3.4331   -3.5553    9.4494 N   0  0  0  0  0  0  0  0  0  0  0  0
    5.3089   -2.8592   14.8217 H   0  0  0  0  0  0  0  0  0  0  0  0
    7.7841   -2.9051   15.4409 H   0  0  0  0  0  0  0  0  0  0  0  0
   10.2529    1.2160   14.5308 H   0  0  0  0  0  0  0  0  0  0  0  0
    9.5063    1.4748   12.3247 H   0  0  0  0  0  0  0  0  0  0  0  0
    7.4759   -0.1704   11.3139 H   0  0  0  0  0  0  0  0  0  0  0  0
    4.1333   -5.0744   10.8852 H   0  0  0  0  0  0  0  0  0  0  0  0
    5.8816   -5.5967    8.7737 H   0  0  0  0  0  0  0  0  0  0  0  0
    6.2116   -3.9211    8.5218 H   0  0  0  0  0  0  0  0  0  0  0  0
    4.1729   -5.6182    7.1137 H   0  0  0  0  0  0  0  0  0  0  0  0
    4.5735   -4.1958    6.4828 H   0  0  0  0  0  0  0  0  0  0  0  0
    2.3697   -4.4927    7.9751 H   0  0  0  0  0  0  0  0  0  0  0  0
    2.9487   -2.9293    7.6001 H   0  0  0  0  0  0  0  0  0  0  0  0
    3.2269   -2.6150    9.7679 H   0  0  0  0  0  0  0  0  0  0  0  0
  1  2  2  0
  2  3  1  0
  3  4  2  0
  4  5  1  0
  5  6  1  0
  6  7  2  0
  7  8  1  0
  7  9  1  0
  9 10  2  0
 10 11  1  0
 11 12  2  0
  2 13  1  0
 13 14  1  0
 14 15  1  0
 15 16  1  0
 16 17  1  0
 12  3  1  0
 17 13  1  0
 12  6  1  0
  4 18  1  0
  5 19  1  0
  9 20  1  0
 10 21  1  0
 11 22  1  0
 13 23  1  0
 14 24  1  0
 14 25  1  0
 15 26  1  0
 15 27  1  0
 16 28  1  0
 16 29  1  0
 17 30  1  0
M  END
>  <Energy>  (122) 
351.45636396138485

>  <compound_id>  (122) 
4766

>  <target_id>  (122) 
1

>  <reference_id>  (122) 
95

>  <inspiration_ids>  (122) 
[93, 95]

>  <energy_score>  (122) 
248.56264894590794

>  <distance_score>  (122) 
9.920139717375928

>  <path>  (122) 
/opt/xchem-fragalysis-2/maxwin/BulkDock/SCRATCH/511018/C4766-P95/C4766-P95.minimised.mol

>  <scratch_subdir>  (122) 
/opt/xchem-fragalysis-2/maxwin/BulkDock/SCRATCH/511018/C4766-P95

>  <fragmenstein_runtime>  (122) 
6.447405815124512

>  <fragmenstein_outcome>  (122) 
too moved

>  <fragmenstein_mode>  (122) 
expansion

>  <fragmenstein_error>  (122) 


$$$$
C4767-P93
     RDKit          3D

 33 35  0  0  0  0  0  0  0  0999 V2000
    7.9597   -0.0397   16.3711 C   0  0  0  0  0  0  0  0  0  0  0  0
    8.3798   -0.8134   15.1091 C   0  0  0  0  0  0  0  0  0  0  0  0
    9.2567   -0.0720   14.4182 C   0  0  0  0  0  0  0  0  0  0  0  0
    8.7905    0.1035   13.1487 C   0  0  0  0  0  0  0  0  0  0  0  0
    7.5960   -0.6762   12.3870 C   0  0  0  0  0  0  0  0  0  0  0  0
    6.9170   -1.7011   12.9909 C   0  0  0  0  0  0  0  0  0  0  0  0
    5.5828   -2.7990   12.7269 C   0  0  0  0  0  0  0  0  0  0  0  0
    3.9890   -3.3854   11.7990 C   0  0  0  0  0  0  0  0  0  0  0  0
    3.1750   -3.8431   12.6477 O   0  0  0  0  0  0  0  0  0  0  0  0
    3.1435   -3.8089   10.0547 C   0  0  0  0  0  0  0  0  0  0  0  0
    1.9237   -4.3644    8.9251 C   0  0  0  0  0  0  0  0  0  0  0  0
    1.4035   -2.8653    8.6423 C   0  0  0  0  0  0  0  0  0  0  0  0
    2.0559   -2.2929    7.5887 C   0  0  0  0  0  0  0  0  0  0  0  0
    3.3237   -3.3908    8.4973 N   0  0  0  0  0  0  0  0  0  0  0  0
    5.7231   -2.8798   14.2651 C   0  0  0  0  0  0  0  0  0  0  0  0
    6.9670   -2.7757   14.7533 N   0  0  0  0  0  0  0  0  0  0  0  0
    7.4932   -1.6859   14.3244 C   0  0  0  0  0  0  0  0  0  0  0  0
    6.9886   -0.3476   16.7532 H   0  0  0  0  0  0  0  0  0  0  0  0
    7.8354    1.0274   16.1423 H   0  0  0  0  0  0  0  0  0  0  0  0
    8.7258   -0.0489   17.1358 H   0  0  0  0  0  0  0  0  0  0  0  0
    9.9970    0.5869   14.8524 H   0  0  0  0  0  0  0  0  0  0  0  0
    9.3904    0.9028   12.7213 H   0  0  0  0  0  0  0  0  0  0  0  0
    7.3047   -0.5348   11.3611 H   0  0  0  0  0  0  0  0  0  0  0  0
    3.7941   -4.6372   10.2261 H   0  0  0  0  0  0  0  0  0  0  0  0
    2.1324   -4.9073    7.9930 H   0  0  0  0  0  0  0  0  0  0  0  0
    1.1518   -5.0943    9.1429 H   0  0  0  0  0  0  0  0  0  0  0  0
    1.5548   -2.1681    9.5699 H   0  0  0  0  0  0  0  0  0  0  0  0
    0.5025   -2.4659    8.9460 H   0  0  0  0  0  0  0  0  0  0  0  0
    1.9522   -1.2152    7.7102 H   0  0  0  0  0  0  0  0  0  0  0  0
    2.9523   -2.1152    7.1255 H   0  0  0  0  0  0  0  0  0  0  0  0
    3.5573   -4.0569    7.7397 H   0  0  0  0  0  0  0  0  0  0  0  0
    5.0280   -3.2695   14.9737 H   0  0  0  0  0  0  0  0  0  0  0  0
    7.3875   -3.2166   15.5360 H   0  0  0  0  0  0  0  0  0  0  0  0
  1  2  1  0
  2  3  2  0
  3  4  1  0
  4  5  2  0
  5  6  1  0
  6  7  1  0
  7  8  1  0
  8  9  2  0
  8 10  1  0
 10 11  1  0
 11 12  1  0
 12 13  1  0
 13 14  1  0
  7 15  2  0
 15 16  1  0
 16 17  1  0
 17  2  1  0
 17  6  2  0
 14 10  1  0
  1 18  1  0
  1 19  1  0
  1 20  1  0
  3 21  1  0
  4 22  1  0
  5 23  1  0
 10 24  1  0
 11 25  1  0
 11 26  1  0
 12 27  1  0
 12 28  1  0
 13 29  1  0
 13 30  1  0
 14 31  1  0
 15 32  1  0
 16 33  1  0
M  END
>  <Energy>  (123) 
712.45589195472633

>  <compound_id>  (123) 
4767

>  <target_id>  (123) 
1

>  <reference_id>  (123) 
93

>  <inspiration_ids>  (123) 
[93, 95]

>  <energy_score>  (123) 
603.7094860560724

>  <distance_score>  (123) 
9.262393757669704

>  <path>  (123) 
/opt/xchem-fragalysis-2/maxwin/BulkDock/SCRATCH/511018/C4767-P93/C4767-P93.minimised.mol

>  <scratch_subdir>  (123) 
/opt/xchem-fragalysis-2/maxwin/BulkDock/SCRATCH/511018/C4767-P93

>  <fragmenstein_runtime>  (123) 
6.339847803115845

>  <fragmenstein_outcome>  (123) 
too moved

>  <fragmenstein_mode>  (123) 
expansion

>  <fragmenstein_error>  (123) 


$$$$
C4767-P95
     RDKit          3D

 33 35  0  0  0  0  0  0  0  0999 V2000
    8.6607   -2.0412   15.1428 C   0  0  0  0  0  0  0  0  0  0  0  0
    7.9110   -1.3158   14.1328 C   0  0  0  0  0  0  0  0  0  0  0  0
    8.4562   -0.1470   13.8047 C   0  0  0  0  0  0  0  0  0  0  0  0
    8.0732    0.1121   12.5135 C   0  0  0  0  0  0  0  0  0  0  0  0
    7.1985   -0.7526   11.4245 C   0  0  0  0  0  0  0  0  0  0  0  0
    6.4415   -1.9656   11.6848 C   0  0  0  0  0  0  0  0  0  0  0  0
    4.7402   -3.0330   11.1970 C   0  0  0  0  0  0  0  0  0  0  0  0
    3.2545   -2.5591    9.8531 C   0  0  0  0  0  0  0  0  0  0  0  0
    2.5610   -1.8623   10.6770 O   0  0  0  0  0  0  0  0  0  0  0  0
    2.0519   -2.7262    8.0218 C   0  0  0  0  0  0  0  0  0  0  0  0
    0.7746   -1.8904    6.5944 C   0  0  0  0  0  0  0  0  0  0  0  0
    0.5454   -1.8140    4.7069 C   0  0  0  0  0  0  0  0  0  0  0  0
    1.8054   -2.3135    4.7376 C   0  0  0  0  0  0  0  0  0  0  0  0
    2.3327   -1.7593    6.5860 N   0  0  0  0  0  0  0  0  0  0  0  0
    5.3479   -2.4704   12.2409 C   0  0  0  0  0  0  0  0  0  0  0  0
    5.8569   -2.5807   13.6374 N   0  0  0  0  0  0  0  0  0  0  0  0
    6.8796   -1.8549   13.3161 C   0  0  0  0  0  0  0  0  0  0  0  0
    8.7507   -1.4051   16.0228 H   0  0  0  0  0  0  0  0  0  0  0  0
    8.1536   -2.9777   15.3033 H   0  0  0  0  0  0  0  0  0  0  0  0
    9.6747   -2.2755   14.7956 H   0  0  0  0  0  0  0  0  0  0  0  0
    9.2267    0.3886   14.3365 H   0  0  0  0  0  0  0  0  0  0  0  0
    8.6707    0.9789   12.2716 H   0  0  0  0  0  0  0  0  0  0  0  0
    7.0471   -0.3576   10.4396 H   0  0  0  0  0  0  0  0  0  0  0  0
    1.3070   -2.0645    8.4947 H   0  0  0  0  0  0  0  0  0  0  0  0
   -0.2878   -1.5475    6.6266 H   0  0  0  0  0  0  0  0  0  0  0  0
    0.2762   -2.7216    6.3762 H   0  0  0  0  0  0  0  0  0  0  0  0
   -0.2676   -1.0972    4.6708 H   0  0  0  0  0  0  0  0  0  0  0  0
    0.8659   -1.0526    3.9517 H   0  0  0  0  0  0  0  0  0  0  0  0
    2.3401   -2.0069    3.7975 H   0  0  0  0  0  0  0  0  0  0  0  0
    1.9755   -3.3811    4.4437 H   0  0  0  0  0  0  0  0  0  0  0  0
    2.5249   -0.7780    6.7386 H   0  0  0  0  0  0  0  0  0  0  0  0
    5.1911   -1.0567   12.0570 H   0  0  0  0  0  0  0  0  0  0  0  0
    5.3441   -2.6471   14.5133 H   0  0  0  0  0  0  0  0  0  0  0  0
  1  2  1  0
  2  3  2  0
  3  4  1  0
  4  5  2  0
  5  6  1  0
  6  7  1  0
  7  8  1  0
  8  9  2  0
  8 10  1  0
 10 11  1  0
 11 12  1  0
 12 13  1  0
 13 14  1  0
  7 15  2  0
 15 16  1  0
 16 17  1  0
 17  2  1  0
 17  6  2  0
 14 10  1  0
  1 18  1  0
  1 19  1  0
  1 20  1  0
  3 21  1  0
  4 22  1  0
  5 23  1  0
 10 24  1  0
 11 25  1  0
 11 26  1  0
 12 27  1  0
 12 28  1  0
 13 29  1  0
 13 30  1  0
 14 31  1  0
 15 32  1  0
 16 33  1  0
M  END
>  <Energy>  (124) 
1427.00648135202

>  <compound_id>  (124) 
4767

>  <target_id>  (124) 
1

>  <reference_id>  (124) 
95

>  <inspiration_ids>  (124) 
[93, 95]

>  <energy_score>  (124) 
1318.2600754533694

>  <distance_score>  (124) 
9.297235249495508

>  <path>  (124) 
/opt/xchem-fragalysis-2/maxwin/BulkDock/SCRATCH/511018/C4767-P95/C4767-P95.minimised.mol

>  <scratch_subdir>  (124) 
/opt/xchem-fragalysis-2/maxwin/BulkDock/SCRATCH/511018/C4767-P95

>  <fragmenstein_runtime>  (124) 
7.279892683029175

>  <fragmenstein_outcome>  (124) 
too moved

>  <fragmenstein_mode>  (124) 
expansion

>  <fragmenstein_error>  (124) 


$$$$
C4769-P93
     RDKit          3D

 34 36  0  0  0  0  0  0  0  0999 V2000
   10.9694   -2.1593   15.4271 C   0  0  0  0  0  0  0  0  0  0  0  0
    9.8224   -1.5484   16.0653 O   0  0  0  0  0  0  0  0  0  0  0  0
    8.9632   -1.0812   15.1030 C   0  0  0  0  0  0  0  0  0  0  0  0
    9.3744    0.0258   14.4832 C   0  0  0  0  0  0  0  0  0  0  0  0
    8.7790    0.1389   13.2669 C   0  0  0  0  0  0  0  0  0  0  0  0
    7.6008   -0.6904   12.6827 C   0  0  0  0  0  0  0  0  0  0  0  0
    7.0156   -1.6655   13.4564 C   0  0  0  0  0  0  0  0  0  0  0  0
    5.8210   -2.7280   13.4592 C   0  0  0  0  0  0  0  0  0  0  0  0
    4.1160   -3.2226   12.6936 C   0  0  0  0  0  0  0  0  0  0  0  0
    4.1193   -3.8744   11.6362 O   0  0  0  0  0  0  0  0  0  0  0  0
    2.3643   -3.2605   13.5190 C   0  0  0  0  0  0  0  0  0  0  0  0
    0.9630   -1.8806   13.7645 C   0  0  0  0  0  0  0  0  0  0  0  0
   -0.1456   -2.6875   14.6009 C   0  0  0  0  0  0  0  0  0  0  0  0
    0.4944   -4.0921   14.9607 C   0  0  0  0  0  0  0  0  0  0  0  0
    1.9133   -4.3527   14.5067 N   0  0  0  0  0  0  0  0  0  0  0  0
    5.9390   -2.9153   14.7865 C   0  0  0  0  0  0  0  0  0  0  0  0
    7.2614   -2.8440   15.0770 N   0  0  0  0  0  0  0  0  0  0  0  0
    7.7998   -1.7520   14.6311 C   0  0  0  0  0  0  0  0  0  0  0  0
   10.6641   -2.9894   14.7825 H   0  0  0  0  0  0  0  0  0  0  0  0
   11.5610   -1.4271   14.8679 H   0  0  0  0  0  0  0  0  0  0  0  0
   11.6123   -2.5678   16.2122 H   0  0  0  0  0  0  0  0  0  0  0  0
   10.2274    0.6153   14.7832 H   0  0  0  0  0  0  0  0  0  0  0  0
    9.3017    0.9222   12.7399 H   0  0  0  0  0  0  0  0  0  0  0  0
    7.2481   -0.6196   11.6658 H   0  0  0  0  0  0  0  0  0  0  0  0
    2.1001   -3.9434   12.7023 H   0  0  0  0  0  0  0  0  0  0  0  0
    0.8174   -1.1251   12.9720 H   0  0  0  0  0  0  0  0  0  0  0  0
    1.0300   -0.9911   14.4222 H   0  0  0  0  0  0  0  0  0  0  0  0
   -0.3800   -2.1501   15.5291 H   0  0  0  0  0  0  0  0  0  0  0  0
   -1.0898   -2.8009   14.0550 H   0  0  0  0  0  0  0  0  0  0  0  0
    0.4619   -4.2196   16.0494 H   0  0  0  0  0  0  0  0  0  0  0  0
   -0.1412   -4.8862   14.5520 H   0  0  0  0  0  0  0  0  0  0  0  0
    2.5313   -4.4394   15.3081 H   0  0  0  0  0  0  0  0  0  0  0  0
    5.2041   -3.4302   15.3753 H   0  0  0  0  0  0  0  0  0  0  0  0
    7.7888   -3.4680   15.6408 H   0  0  0  0  0  0  0  0  0  0  0  0
  1  2  1  0
  2  3  1  0
  3  4  2  0
  4  5  1  0
  5  6  2  0
  6  7  1  0
  7  8  1  0
  8  9  1  0
  9 10  2  0
  9 11  1  0
 11 12  1  0
 12 13  1  0
 13 14  1  0
 14 15  1  0
  8 16  2  0
 16 17  1  0
 17 18  1  0
 18  3  1  0
 18  7  2  0
 15 11  1  0
  1 19  1  0
  1 20  1  0
  1 21  1  0
  4 22  1  0
  5 23  1  0
  6 24  1  0
 11 25  1  0
 12 26  1  0
 12 27  1  0
 13 28  1  0
 13 29  1  0
 14 30  1  0
 14 31  1  0
 15 32  1  0
 16 33  1  0
 17 34  1  0
M  END
>  <Energy>  (125) 
383.34417881258651

>  <compound_id>  (125) 
4769

>  <target_id>  (125) 
1

>  <reference_id>  (125) 
93

>  <inspiration_ids>  (125) 
[93, 95]

>  <energy_score>  (125) 
277.7851869472866

>  <distance_score>  (125) 
10.121022500293016

>  <path>  (125) 
/opt/xchem-fragalysis-2/maxwin/BulkDock/SCRATCH/511018/C4769-P93/C4769-P93.minimised.mol

>  <scratch_subdir>  (125) 
/opt/xchem-fragalysis-2/maxwin/BulkDock/SCRATCH/511018/C4769-P93

>  <fragmenstein_runtime>  (125) 
6.926364421844482

>  <fragmenstein_outcome>  (125) 
too moved

>  <fragmenstein_mode>  (125) 
expansion

>  <fragmenstein_error>  (125) 


$$$$
C4769-P95
     RDKit          3D

 34 36  0  0  0  0  0  0  0  0999 V2000
    9.4086   -2.4323   14.9385 C   0  0  0  0  0  0  0  0  0  0  0  0
    7.9913   -2.8091   14.9428 O   0  0  0  0  0  0  0  0  0  0  0  0
    7.1621   -2.1610   14.0287 C   0  0  0  0  0  0  0  0  0  0  0  0
    7.6164   -0.9313   13.8057 C   0  0  0  0  0  0  0  0  0  0  0  0
    7.2506   -0.5133   12.5877 C   0  0  0  0  0  0  0  0  0  0  0  0
    6.7647   -1.2656   11.5829 C   0  0  0  0  0  0  0  0  0  0  0  0
    5.5643   -2.0536   11.9784 C   0  0  0  0  0  0  0  0  0  0  0  0
    3.6610   -2.3177   11.3285 C   0  0  0  0  0  0  0  0  0  0  0  0
    1.9096   -1.4363   10.9721 C   0  0  0  0  0  0  0  0  0  0  0  0
    1.6021   -1.2012    9.7739 O   0  0  0  0  0  0  0  0  0  0  0  0
    0.0041   -1.0212   11.3957 C   0  0  0  0  0  0  0  0  0  0  0  0
   -0.9259   -0.4357   12.6057 C   0  0  0  0  0  0  0  0  0  0  0  0
   -2.0253    0.6249   12.0911 C   0  0  0  0  0  0  0  0  0  0  0  0
   -2.2026    0.6657   10.5226 C   0  0  0  0  0  0  0  0  0  0  0  0
   -1.2013   -0.6365    9.9144 N   0  0  0  0  0  0  0  0  0  0  0  0
    3.6538   -3.3674   12.2231 C   0  0  0  0  0  0  0  0  0  0  0  0
    5.0103   -3.3658   11.9952 N   0  0  0  0  0  0  0  0  0  0  0  0
    5.8333   -2.5635   13.3564 C   0  0  0  0  0  0  0  0  0  0  0  0
   10.0168   -3.3188   15.1431 H   0  0  0  0  0  0  0  0  0  0  0  0
    9.8530   -2.0905   14.0269 H   0  0  0  0  0  0  0  0  0  0  0  0
    9.5895   -1.6488   15.6854 H   0  0  0  0  0  0  0  0  0  0  0  0
    8.3877   -0.3998   14.3368 H   0  0  0  0  0  0  0  0  0  0  0  0
    6.2173   -0.1754   12.7232 H   0  0  0  0  0  0  0  0  0  0  0  0
    6.9022   -0.7220   10.6554 H   0  0  0  0  0  0  0  0  0  0  0  0
   -0.3761   -1.9075   11.2576 H   0  0  0  0  0  0  0  0  0  0  0  0
   -0.3168   -0.0201   13.4190 H   0  0  0  0  0  0  0  0  0  0  0  0
   -1.5134   -1.2079   13.1120 H   0  0  0  0  0  0  0  0  0  0  0  0
   -1.7453    1.6258   12.4419 H   0  0  0  0  0  0  0  0  0  0  0  0
   -2.9855    0.4007   12.5721 H   0  0  0  0  0  0  0  0  0  0  0  0
   -3.2300    0.5654   10.1441 H   0  0  0  0  0  0  0  0  0  0  0  0
   -1.8461    1.6031   10.0677 H   0  0  0  0  0  0  0  0  0  0  0  0
   -1.9517   -1.3117    9.8510 H   0  0  0  0  0  0  0  0  0  0  0  0
    3.0248   -4.0982   12.7179 H   0  0  0  0  0  0  0  0  0  0  0  0
    5.2479   -4.3104   11.8521 H   0  0  0  0  0  0  0  0  0  0  0  0
  1  2  1  0
  2  3  1  0
  3  4  2  0
  4  5  1  0
  5  6  2  0
  6  7  1  0
  7  8  1  0
  8  9  1  0
  9 10  2  0
  9 11  1  0
 11 12  1  0
 12 13  1  0
 13 14  1  0
 14 15  1  0
  8 16  2  0
 16 17  1  0
 17 18  1  0
 18  3  1  0
 18  7  2  0
 15 11  1  0
  1 19  1  0
  1 20  1  0
  1 21  1  0
  4 22  1  0
  5 23  1  0
  6 24  1  0
 11 25  1  0
 12 26  1  0
 12 27  1  0
 13 28  1  0
 13 29  1  0
 14 30  1  0
 14 31  1  0
 15 32  1  0
 16 33  1  0
 17 34  1  0
M  END
>  <Energy>  (126) 
821.88728295439478

>  <compound_id>  (126) 
4769

>  <target_id>  (126) 
1

>  <reference_id>  (126) 
95

>  <inspiration_ids>  (126) 
[93, 95]

>  <energy_score>  (126) 
716.328291089095

>  <distance_score>  (126) 
8.915964742669907

>  <path>  (126) 
/opt/xchem-fragalysis-2/maxwin/BulkDock/SCRATCH/511018/C4769-P95/C4769-P95.minimised.mol

>  <scratch_subdir>  (126) 
/opt/xchem-fragalysis-2/maxwin/BulkDock/SCRATCH/511018/C4769-P95

>  <fragmenstein_runtime>  (126) 
8.411508083343506

>  <fragmenstein_outcome>  (126) 
too moved

>  <fragmenstein_mode>  (126) 
expansion

>  <fragmenstein_error>  (126) 


$$$$
C4770-P93
     RDKit          3D

 34 36  0  0  0  0  0  0  0  0999 V2000
    9.6345   -0.0576   14.9550 C   0  0  0  0  0  0  0  0  0  0  0  0
    8.9431   -1.2716   15.2017 O   0  0  0  0  0  0  0  0  0  0  0  0
    7.9679   -1.6544   14.3601 C   0  0  0  0  0  0  0  0  0  0  0  0
    7.0998   -2.5361   14.7751 C   0  0  0  0  0  0  0  0  0  0  0  0
    5.8625   -2.8402   14.1244 C   0  0  0  0  0  0  0  0  0  0  0  0
    5.3925   -2.8131   12.5133 C   0  0  0  0  0  0  0  0  0  0  0  0
    3.7793   -2.2496   11.5540 C   0  0  0  0  0  0  0  0  0  0  0  0
    2.2385   -2.4834   10.4447 C   0  0  0  0  0  0  0  0  0  0  0  0
    2.7400   -3.5148    9.8778 O   0  0  0  0  0  0  0  0  0  0  0  0
    0.4562   -1.5773    9.6743 C   0  0  0  0  0  0  0  0  0  0  0  0
   -1.3107   -1.7096    8.3406 C   0  0  0  0  0  0  0  0  0  0  0  0
   -2.3984   -0.7350    7.8216 C   0  0  0  0  0  0  0  0  0  0  0  0
   -2.4575   -0.0240    9.0348 C   0  0  0  0  0  0  0  0  0  0  0  0
   -1.4396   -0.9323    9.5880 N   0  0  0  0  0  0  0  0  0  0  0  0
    4.5163   -0.7105   11.3076 C   0  0  0  0  0  0  0  0  0  0  0  0
    5.7604   -0.7342   11.8840 N   0  0  0  0  0  0  0  0  0  0  0  0
    6.4492   -1.7343   12.3828 C   0  0  0  0  0  0  0  0  0  0  0  0
    7.5614   -1.2580   13.1415 C   0  0  0  0  0  0  0  0  0  0  0  0
    9.8745    0.1281   13.9063 H   0  0  0  0  0  0  0  0  0  0  0  0
   10.5800   -0.0980   15.5050 H   0  0  0  0  0  0  0  0  0  0  0  0
    9.0562    0.7750   15.3640 H   0  0  0  0  0  0  0  0  0  0  0  0
    7.4442   -3.0325   15.6295 H   0  0  0  0  0  0  0  0  0  0  0  0
    5.1175   -3.1794   14.8323 H   0  0  0  0  0  0  0  0  0  0  0  0
    0.8887   -2.2210    8.8423 H   0  0  0  0  0  0  0  0  0  0  0  0
   -2.1482   -2.4688    8.4923 H   0  0  0  0  0  0  0  0  0  0  0  0
   -1.0238   -1.6670    7.2250 H   0  0  0  0  0  0  0  0  0  0  0  0
   -2.0467   -0.2945    6.8972 H   0  0  0  0  0  0  0  0  0  0  0  0
   -3.3566   -1.2247    7.5929 H   0  0  0  0  0  0  0  0  0  0  0  0
   -3.4820   -0.1343    9.4161 H   0  0  0  0  0  0  0  0  0  0  0  0
   -2.3231    1.0423    9.1115 H   0  0  0  0  0  0  0  0  0  0  0  0
   -1.6678   -1.1044   10.5785 H   0  0  0  0  0  0  0  0  0  0  0  0
    4.0648    0.2340   10.9486 H   0  0  0  0  0  0  0  0  0  0  0  0
    5.8878    0.0978   12.3831 H   0  0  0  0  0  0  0  0  0  0  0  0
    8.0569   -0.3772   12.7464 H   0  0  0  0  0  0  0  0  0  0  0  0
  1  2  1  0
  2  3  1  0
  3  4  2  0
  4  5  1  0
  5  6  2  0
  6  7  1  0
  7  8  1  0
  8  9  2  0
  8 10  1  0
 10 11  1  0
 11 12  1  0
 12 13  1  0
 13 14  1  0
  7 15  2  0
 15 16  1  0
 16 17  1  0
 17 18  2  0
 18  3  1  0
 17  6  1  0
 14 10  1  0
  1 19  1  0
  1 20  1  0
  1 21  1  0
  4 22  1  0
  5 23  1  0
 10 24  1  0
 11 25  1  0
 11 26  1  0
 12 27  1  0
 12 28  1  0
 13 29  1  0
 13 30  1  0
 14 31  1  0
 15 32  1  0
 16 33  1  0
 18 34  1  0
M  END
>  <Energy>  (127) 
1105.8016346187658

>  <compound_id>  (127) 
4770

>  <target_id>  (127) 
1

>  <reference_id>  (127) 
93

>  <inspiration_ids>  (127) 
[93, 95]

>  <energy_score>  (127) 
995.3625056345829

>  <distance_score>  (127) 
8.48049353413661

>  <path>  (127) 
/opt/xchem-fragalysis-2/maxwin/BulkDock/SCRATCH/511018/C4770-P93/C4770-P93.minimised.mol

>  <scratch_subdir>  (127) 
/opt/xchem-fragalysis-2/maxwin/BulkDock/SCRATCH/511018/C4770-P93

>  <fragmenstein_runtime>  (127) 
6.7154541015625

>  <fragmenstein_outcome>  (127) 
too moved

>  <fragmenstein_mode>  (127) 
expansion

>  <fragmenstein_error>  (127) 


$$$$
C4770-P95
     RDKit          3D

 34 36  0  0  0  0  0  0  0  0999 V2000
    9.4956    0.2127   14.8485 C   0  0  0  0  0  0  0  0  0  0  0  0
    8.8710   -1.0483   15.0377 O   0  0  0  0  0  0  0  0  0  0  0  0
    7.8945   -1.3873   14.1868 C   0  0  0  0  0  0  0  0  0  0  0  0
    7.0476   -2.3212   14.4970 C   0  0  0  0  0  0  0  0  0  0  0  0
    5.8225   -2.5342   13.7619 C   0  0  0  0  0  0  0  0  0  0  0  0
    5.2912   -2.4322   12.0650 C   0  0  0  0  0  0  0  0  0  0  0  0
    3.6185   -1.8269   11.0803 C   0  0  0  0  0  0  0  0  0  0  0  0
    1.6491   -1.4982   10.9818 C   0  0  0  0  0  0  0  0  0  0  0  0
    1.1901   -1.0200   12.0769 O   0  0  0  0  0  0  0  0  0  0  0  0
    0.1134   -1.2134    9.6210 C   0  0  0  0  0  0  0  0  0  0  0  0
   -1.5900   -1.6841    8.3771 C   0  0  0  0  0  0  0  0  0  0  0  0
   -2.8446   -0.8876    7.7877 C   0  0  0  0  0  0  0  0  0  0  0  0
   -2.8462   -0.1027    8.9556 C   0  0  0  0  0  0  0  0  0  0  0  0
   -1.7567   -1.1608    9.3220 N   0  0  0  0  0  0  0  0  0  0  0  0
    4.4116   -0.2513   10.9702 C   0  0  0  0  0  0  0  0  0  0  0  0
    6.2030   -0.5938   11.1347 N   0  0  0  0  0  0  0  0  0  0  0  0
    6.4184   -1.3696   12.1278 C   0  0  0  0  0  0  0  0  0  0  0  0
    7.4767   -0.9206   13.0019 C   0  0  0  0  0  0  0  0  0  0  0  0
    9.9756    0.3091   13.8718 H   0  0  0  0  0  0  0  0  0  0  0  0
   10.2790    0.3104   15.6049 H   0  0  0  0  0  0  0  0  0  0  0  0
    8.7820    1.0241   15.0137 H   0  0  0  0  0  0  0  0  0  0  0  0
    7.3888   -2.9032   15.3024 H   0  0  0  0  0  0  0  0  0  0  0  0
    5.0192   -2.7440   14.4860 H   0  0  0  0  0  0  0  0  0  0  0  0
    0.6527   -1.9344    8.9820 H   0  0  0  0  0  0  0  0  0  0  0  0
   -1.3394   -1.6526    7.2240 H   0  0  0  0  0  0  0  0  0  0  0  0
   -2.2763   -2.6594    8.4740 H   0  0  0  0  0  0  0  0  0  0  0  0
   -2.6147   -0.5017    6.8046 H   0  0  0  0  0  0  0  0  0  0  0  0
   -3.7298   -1.5329    7.6777 H   0  0  0  0  0  0  0  0  0  0  0  0
   -2.6230    0.9474    8.8762 H   0  0  0  0  0  0  0  0  0  0  0  0
   -3.8321   -0.2039    9.4254 H   0  0  0  0  0  0  0  0  0  0  0  0
   -1.8208   -1.2290   10.3397 H   0  0  0  0  0  0  0  0  0  0  0  0
    4.0744    0.7313   10.5868 H   0  0  0  0  0  0  0  0  0  0  0  0
    6.7525    0.0423   10.5968 H   0  0  0  0  0  0  0  0  0  0  0  0
    8.0064   -0.0284   12.6615 H   0  0  0  0  0  0  0  0  0  0  0  0
  1  2  1  0
  2  3  1  0
  3  4  2  0
  4  5  1  0
  5  6  2  0
  6  7  1  0
  7  8  1  0
  8  9  2  0
  8 10  1  0
 10 11  1  0
 11 12  1  0
 12 13  1  0
 13 14  1  0
  7 15  2  0
 15 16  1  0
 16 17  1  0
 17 18  2  0
 18  3  1  0
 17  6  1  0
 14 10  1  0
  1 19  1  0
  1 20  1  0
  1 21  1  0
  4 22  1  0
  5 23  1  0
 10 24  1  0
 11 25  1  0
 11 26  1  0
 12 27  1  0
 12 28  1  0
 13 29  1  0
 13 30  1  0
 14 31  1  0
 15 32  1  0
 16 33  1  0
 18 34  1  0
M  END
>  <Energy>  (128) 
1162.8850919269162

>  <compound_id>  (128) 
4770

>  <target_id>  (128) 
1

>  <reference_id>  (128) 
95

>  <inspiration_ids>  (128) 
[93, 95]

>  <energy_score>  (128) 
1052.4459629427433

>  <distance_score>  (128) 
8.463733659770849

>  <path>  (128) 
/opt/xchem-fragalysis-2/maxwin/BulkDock/SCRATCH/511018/C4770-P95/C4770-P95.minimised.mol

>  <scratch_subdir>  (128) 
/opt/xchem-fragalysis-2/maxwin/BulkDock/SCRATCH/511018/C4770-P95

>  <fragmenstein_runtime>  (128) 
6.318085432052612

>  <fragmenstein_outcome>  (128) 
too moved

>  <fragmenstein_mode>  (128) 
expansion

>  <fragmenstein_error>  (128) 


$$$$
C4772-P93
     RDKit          3D

 44 46  0  0  0  0  0  0  0  0999 V2000
   16.5511   -2.0031   17.7922 C   0  0  0  0  0  0  0  0  0  0  0  0
   15.2432   -1.7166   17.1685 C   0  0  0  0  0  0  0  0  0  0  0  0
   14.5886   -0.5265   16.9198 C   0  0  0  0  0  0  0  0  0  0  0  0
   13.3335   -0.8338   16.3270 C   0  0  0  0  0  0  0  0  0  0  0  0
   12.2207   -0.0704   15.9050 C   0  0  0  0  0  0  0  0  0  0  0  0
   11.0639   -0.7081   15.4106 C   0  0  0  0  0  0  0  0  0  0  0  0
    9.7973    0.1020   15.1808 C   0  0  0  0  0  0  0  0  0  0  0  0
    8.8690   -0.4386   14.2254 N   0  0  0  0  0  0  0  0  0  0  0  0
    7.9784   -1.5552   14.3088 C   0  0  0  0  0  0  0  0  0  0  0  0
    7.7192   -2.2794   15.2262 O   0  0  0  0  0  0  0  0  0  0  0  0
    7.1516   -1.8150   12.9727 C   0  0  0  0  0  0  0  0  0  0  0  0
    7.3495   -2.4360   11.3067 C   0  0  0  0  0  0  0  0  0  0  0  0
    7.2243   -4.0672   10.0729 C   0  0  0  0  0  0  0  0  0  0  0  0
    7.2177   -3.7739    8.4654 C   0  0  0  0  0  0  0  0  0  0  0  0
    7.6153   -4.9458    7.5957 C   0  0  0  0  0  0  0  0  0  0  0  0
    7.4140   -6.0187    8.5893 C   0  0  0  0  0  0  0  0  0  0  0  0
    7.9750   -5.2717    9.7074 N   0  0  0  0  0  0  0  0  0  0  0  0
   11.0855   -2.1023   15.2868 C   0  0  0  0  0  0  0  0  0  0  0  0
   12.1679   -2.8809   15.6965 C   0  0  0  0  0  0  0  0  0  0  0  0
   13.2709   -2.2191   16.2207 C   0  0  0  0  0  0  0  0  0  0  0  0
   14.4428   -2.7307   16.7149 N   0  0  0  0  0  0  0  0  0  0  0  0
   17.2118   -2.5169   17.0866 H   0  0  0  0  0  0  0  0  0  0  0  0
   16.4279   -2.6378   18.6758 H   0  0  0  0  0  0  0  0  0  0  0  0
   17.0469   -1.0794   18.1073 H   0  0  0  0  0  0  0  0  0  0  0  0
   14.9624    0.4602   17.1607 H   0  0  0  0  0  0  0  0  0  0  0  0
   12.2505    1.0101   16.0172 H   0  0  0  0  0  0  0  0  0  0  0  0
    9.2696    0.1896   16.1365 H   0  0  0  0  0  0  0  0  0  0  0  0
   10.0609    1.1056   14.8312 H   0  0  0  0  0  0  0  0  0  0  0  0
    8.8993   -0.1133   13.2652 H   0  0  0  0  0  0  0  0  0  0  0  0
    6.3375   -2.3984   13.4268 H   0  0  0  0  0  0  0  0  0  0  0  0
    6.6907   -0.8562   12.7513 H   0  0  0  0  0  0  0  0  0  0  0  0
    7.3923   -1.5001   10.7323 H   0  0  0  0  0  0  0  0  0  0  0  0
    6.3780   -2.6162   11.6258 H   0  0  0  0  0  0  0  0  0  0  0  0
    6.2569   -4.5131   10.3444 H   0  0  0  0  0  0  0  0  0  0  0  0
    6.1724   -3.7750    8.1993 H   0  0  0  0  0  0  0  0  0  0  0  0
    7.7962   -2.8869    8.1966 H   0  0  0  0  0  0  0  0  0  0  0  0
    7.0002   -5.0558    6.6972 H   0  0  0  0  0  0  0  0  0  0  0  0
    8.6646   -4.8603    7.2853 H   0  0  0  0  0  0  0  0  0  0  0  0
    6.3686   -6.2996    8.7546 H   0  0  0  0  0  0  0  0  0  0  0  0
    8.0000   -6.9111    8.3530 H   0  0  0  0  0  0  0  0  0  0  0  0
    8.1993   -5.9545   10.4175 H   0  0  0  0  0  0  0  0  0  0  0  0
   10.2300   -2.6369   14.8862 H   0  0  0  0  0  0  0  0  0  0  0  0
   12.1242   -3.9610   15.6367 H   0  0  0  0  0  0  0  0  0  0  0  0
   14.6650   -3.7161   16.7464 H   0  0  0  0  0  0  0  0  0  0  0  0
  1  2  1  0
  2  3  2  0
  3  4  1  0
  4  5  2  0
  5  6  1  0
  6  7  1  0
  7  8  1  0
  8  9  1  0
  9 10  2  0
  9 11  1  0
 11 12  1  0
 12 13  1  0
 13 14  1  0
 14 15  1  0
 15 16  1  0
 16 17  1  0
  6 18  2  0
 18 19  1  0
 19 20  2  0
 20 21  1  0
 21  2  1  0
 20  4  1  0
 17 13  1  0
  1 22  1  0
  1 23  1  0
  1 24  1  0
  3 25  1  0
  5 26  1  0
  7 27  1  0
  7 28  1  0
  8 29  1  0
 11 30  1  0
 11 31  1  0
 12 32  1  0
 12 33  1  0
 13 34  1  0
 14 35  1  0
 14 36  1  0
 15 37  1  0
 15 38  1  0
 16 39  1  0
 16 40  1  0
 17 41  1  0
 18 42  1  0
 19 43  1  0
 21 44  1  0
M  END
>  <Energy>  (129) 
204.8446181625703

>  <compound_id>  (129) 
4772

>  <target_id>  (129) 
1

>  <reference_id>  (129) 
93

>  <inspiration_ids>  (129) 
[93, 95]

>  <energy_score>  (129) 
155.2899796457811

>  <distance_score>  (129) 
10.65024700561858

>  <path>  (129) 
/opt/xchem-fragalysis-2/maxwin/BulkDock/SCRATCH/511018/C4772-P93/C4772-P93.minimised.mol

>  <scratch_subdir>  (129) 
/opt/xchem-fragalysis-2/maxwin/BulkDock/SCRATCH/511018/C4772-P93

>  <fragmenstein_runtime>  (129) 
18.591986179351807

>  <fragmenstein_outcome>  (129) 
too moved

>  <fragmenstein_mode>  (129) 
expansion

>  <fragmenstein_error>  (129) 


$$$$
C4772-P95
     RDKit          3D

 44 46  0  0  0  0  0  0  0  0999 V2000
   12.8176   -0.3190   14.2056 C   0  0  0  0  0  0  0  0  0  0  0  0
   11.5705    0.3381   14.6672 C   0  0  0  0  0  0  0  0  0  0  0  0
   11.2672    1.6556   14.9603 C   0  0  0  0  0  0  0  0  0  0  0  0
    9.9341    1.7068   15.4614 C   0  0  0  0  0  0  0  0  0  0  0  0
    9.0781    2.7300   15.9519 C   0  0  0  0  0  0  0  0  0  0  0  0
    7.7664    2.4405   16.4064 C   0  0  0  0  0  0  0  0  0  0  0  0
    6.8666    3.5548   16.9613 C   0  0  0  0  0  0  0  0  0  0  0  0
    5.4380    3.5085   16.6266 N   0  0  0  0  0  0  0  0  0  0  0  0
    4.5069    4.5679   16.2788 C   0  0  0  0  0  0  0  0  0  0  0  0
    4.6882    5.7410   16.1001 O   0  0  0  0  0  0  0  0  0  0  0  0
    3.0254    4.0358   16.1494 C   0  0  0  0  0  0  0  0  0  0  0  0
    2.3139    4.5641   14.8682 C   0  0  0  0  0  0  0  0  0  0  0  0
    1.2445    3.6550   14.1701 C   0  0  0  0  0  0  0  0  0  0  0  0
    0.6853    4.3308   12.8962 C   0  0  0  0  0  0  0  0  0  0  0  0
   -0.7889    4.5545   13.1739 C   0  0  0  0  0  0  0  0  0  0  0  0
   -1.1059    3.3987   14.0822 C   0  0  0  0  0  0  0  0  0  0  0  0
    0.0495    3.3509   14.9941 N   0  0  0  0  0  0  0  0  0  0  0  0
    7.3741    1.0998   16.4065 C   0  0  0  0  0  0  0  0  0  0  0  0
    8.1577    0.0860   15.8270 C   0  0  0  0  0  0  0  0  0  0  0  0
    9.4434    0.4079   15.4012 C   0  0  0  0  0  0  0  0  0  0  0  0
   10.4196   -0.3854   14.8451 N   0  0  0  0  0  0  0  0  0  0  0  0
   12.6658   -0.7933   13.2306 H   0  0  0  0  0  0  0  0  0  0  0  0
   13.1351   -1.0853   14.9200 H   0  0  0  0  0  0  0  0  0  0  0  0
   13.6285    0.4095   14.1069 H   0  0  0  0  0  0  0  0  0  0  0  0
   11.9466    2.4925   14.8693 H   0  0  0  0  0  0  0  0  0  0  0  0
    9.4513    3.7517   15.9866 H   0  0  0  0  0  0  0  0  0  0  0  0
    7.2370    4.5309   16.6289 H   0  0  0  0  0  0  0  0  0  0  0  0
    6.9318    3.5311   18.0548 H   0  0  0  0  0  0  0  0  0  0  0  0
    4.9510    2.6262   16.6152 H   0  0  0  0  0  0  0  0  0  0  0  0
    2.4880    4.4074   17.0312 H   0  0  0  0  0  0  0  0  0  0  0  0
    2.9734    2.9471   16.2158 H   0  0  0  0  0  0  0  0  0  0  0  0
    1.8519    5.5299   15.1145 H   0  0  0  0  0  0  0  0  0  0  0  0
    3.0812    4.7901   14.1154 H   0  0  0  0  0  0  0  0  0  0  0  0
    1.7190    2.7086   13.8886 H   0  0  0  0  0  0  0  0  0  0  0  0
    1.1853    5.2726   12.6483 H   0  0  0  0  0  0  0  0  0  0  0  0
    0.8024    3.6595   12.0411 H   0  0  0  0  0  0  0  0  0  0  0  0
   -0.9298    5.5069   13.7001 H   0  0  0  0  0  0  0  0  0  0  0  0
   -1.3975    4.5821   12.2707 H   0  0  0  0  0  0  0  0  0  0  0  0
   -1.1700    2.4759   13.5050 H   0  0  0  0  0  0  0  0  0  0  0  0
   -2.0400    3.5387   14.6322 H   0  0  0  0  0  0  0  0  0  0  0  0
   -0.0559    4.1022   15.6774 H   0  0  0  0  0  0  0  0  0  0  0  0
    6.4160    0.8279   16.8410 H   0  0  0  0  0  0  0  0  0  0  0  0
    7.7767   -0.9206   15.7118 H   0  0  0  0  0  0  0  0  0  0  0  0
   10.2922   -1.3506   14.5658 H   0  0  0  0  0  0  0  0  0  0  0  0
  1  2  1  0
  2  3  2  0
  3  4  1  0
  4  5  2  0
  5  6  1  0
  6  7  1  0
  7  8  1  0
  8  9  1  0
  9 10  2  0
  9 11  1  0
 11 12  1  0
 12 13  1  0
 13 14  1  0
 14 15  1  0
 15 16  1  0
 16 17  1  0
  6 18  2  0
 18 19  1  0
 19 20  2  0
 20 21  1  0
 21  2  1  0
 20  4  1  0
 17 13  1  0
  1 22  1  0
  1 23  1  0
  1 24  1  0
  3 25  1  0
  5 26  1  0
  7 27  1  0
  7 28  1  0
  8 29  1  0
 11 30  1  0
 11 31  1  0
 12 32  1  0
 12 33  1  0
 13 34  1  0
 14 35  1  0
 14 36  1  0
 15 37  1  0
 15 38  1  0
 16 39  1  0
 16 40  1  0
 17 41  1  0
 18 42  1  0
 19 43  1  0
 21 44  1  0
M  END
>  <Energy>  (130) 
8.7542779833630053

>  <compound_id>  (130) 
4772

>  <target_id>  (130) 
1

>  <reference_id>  (130) 
95

>  <inspiration_ids>  (130) 
[93, 95]

>  <energy_score>  (130) 
-40.80036053342582

>  <distance_score>  (130) 
9.630517949924734

>  <path>  (130) 
/opt/xchem-fragalysis-2/maxwin/BulkDock/SCRATCH/511018/C4772-P95/C4772-P95.minimised.mol

>  <scratch_subdir>  (130) 
/opt/xchem-fragalysis-2/maxwin/BulkDock/SCRATCH/511018/C4772-P95

>  <fragmenstein_runtime>  (130) 
12.173911333084106

>  <fragmenstein_outcome>  (130) 
too moved

>  <fragmenstein_mode>  (130) 
expansion

>  <fragmenstein_error>  (130) 


$$$$
C4773-P93
     RDKit          3D

 45 47  0  0  0  0  0  0  0  0999 V2000
   -1.8460   -0.5424    9.1005 O   0  0  0  0  0  0  0  0  0  0  0  0
   -1.3789   -1.5540    8.5744 C   0  0  0  0  0  0  0  0  0  0  0  0
   -2.4867   -2.2184    7.6454 C   0  0  0  0  0  0  0  0  0  0  0  0
   -3.9514   -2.5959    7.3238 N   0  0  0  0  0  0  0  0  0  0  0  0
   -5.1635   -1.7748    7.2647 C   0  0  0  0  0  0  0  0  0  0  0  0
   -5.3100   -0.5884    7.3741 O   0  0  0  0  0  0  0  0  0  0  0  0
   -6.4471   -2.6809    7.0221 C   0  0  0  0  0  0  0  0  0  0  0  0
   -7.7168   -2.0675    7.6276 C   0  0  0  0  0  0  0  0  0  0  0  0
   -8.5528   -1.6448    6.4389 C   0  0  0  0  0  0  0  0  0  0  0  0
   -8.1953   -2.6924    5.4148 C   0  0  0  0  0  0  0  0  0  0  0  0
   -6.7536   -2.8617    5.5918 N   0  0  0  0  0  0  0  0  0  0  0  0
    0.4542   -2.2892    9.0287 N   0  0  0  0  0  0  0  0  0  0  0  0
    1.7036   -1.7563   10.3477 C   0  0  0  0  0  0  0  0  0  0  0  0
    3.2371   -2.8468   11.3824 C   0  0  0  0  0  0  0  0  0  0  0  0
    5.0613   -2.9014   12.3893 C   0  0  0  0  0  0  0  0  0  0  0  0
    6.3560   -1.7509   12.2649 C   0  0  0  0  0  0  0  0  0  0  0  0
    7.3172   -1.4688   13.2544 C   0  0  0  0  0  0  0  0  0  0  0  0
    8.3335   -0.4221   13.4611 C   0  0  0  0  0  0  0  0  0  0  0  0
    9.1318   -0.1746   14.5644 C   0  0  0  0  0  0  0  0  0  0  0  0
    8.6387   -0.7414   15.6629 C   0  0  0  0  0  0  0  0  0  0  0  0
    7.5130   -1.5833   15.5143 C   0  0  0  0  0  0  0  0  0  0  0  0
    6.9247   -2.1448   14.3414 C   0  0  0  0  0  0  0  0  0  0  0  0
    5.7339   -2.8344   14.0313 N   0  0  0  0  0  0  0  0  0  0  0  0
   -2.8579   -2.5586    8.6119 H   0  0  0  0  0  0  0  0  0  0  0  0
   -2.7442   -1.1845    7.3373 H   0  0  0  0  0  0  0  0  0  0  0  0
   -4.2102   -3.5720    7.2727 H   0  0  0  0  0  0  0  0  0  0  0  0
   -6.2812   -3.6799    7.4220 H   0  0  0  0  0  0  0  0  0  0  0  0
   -8.2655   -2.8406    8.1795 H   0  0  0  0  0  0  0  0  0  0  0  0
   -7.5363   -1.2331    8.3113 H   0  0  0  0  0  0  0  0  0  0  0  0
   -8.2523   -0.6470    6.0971 H   0  0  0  0  0  0  0  0  0  0  0  0
   -9.6222   -1.6258    6.6676 H   0  0  0  0  0  0  0  0  0  0  0  0
   -8.4391   -2.3780    4.3964 H   0  0  0  0  0  0  0  0  0  0  0  0
   -8.7160   -3.6345    5.6243 H   0  0  0  0  0  0  0  0  0  0  0  0
   -6.4888   -3.7941    5.2803 H   0  0  0  0  0  0  0  0  0  0  0  0
    0.6103   -3.1881    8.5367 H   0  0  0  0  0  0  0  0  0  0  0  0
    1.7540   -0.7324    9.9463 H   0  0  0  0  0  0  0  0  0  0  0  0
    1.0788   -1.2140   11.0606 H   0  0  0  0  0  0  0  0  0  0  0  0
    3.7358   -1.9308   11.3993 H   0  0  0  0  0  0  0  0  0  0  0  0
    3.4096   -3.6552   10.6788 H   0  0  0  0  0  0  0  0  0  0  0  0
    6.4155   -1.0518   11.4311 H   0  0  0  0  0  0  0  0  0  0  0  0
    8.5251    0.1873   12.6276 H   0  0  0  0  0  0  0  0  0  0  0  0
    9.9041    0.5809   14.5690 H   0  0  0  0  0  0  0  0  0  0  0  0
    8.8643   -0.2577   16.6055 H   0  0  0  0  0  0  0  0  0  0  0  0
    6.8253   -1.2733   16.2912 H   0  0  0  0  0  0  0  0  0  0  0  0
    5.1140   -3.1150   14.7645 H   0  0  0  0  0  0  0  0  0  0  0  0
  1  2  2  0
  2  3  1  0
  3  4  1  0
  4  5  1  0
  5  6  2  0
  5  7  1  0
  7  8  1  0
  8  9  1  0
  9 10  1  0
 10 11  1  0
  2 12  1  0
 12 13  1  0
 13 14  1  0
 14 15  1  0
 15 16  2  0
 16 17  1  0
 17 18  2  0
 18 19  1  0
 19 20  2  0
 20 21  1  0
 21 22  2  0
 22 23  1  0
 11  7  1  0
 23 15  1  0
 22 17  1  0
  3 24  1  0
  3 25  1  0
  4 26  1  0
  7 27  1  0
  8 28  1  0
  8 29  1  0
  9 30  1  0
  9 31  1  0
 10 32  1  0
 10 33  1  0
 11 34  1  0
 12 35  1  0
 13 36  1  0
 13 37  1  0
 14 38  1  0
 14 39  1  0
 16 40  1  0
 18 41  1  0
 19 42  1  0
 20 43  1  0
 21 44  1  0
 23 45  1  0
M  END
>  <Energy>  (131) 
801.03110100369122

>  <compound_id>  (131) 
4773

>  <target_id>  (131) 
1

>  <reference_id>  (131) 
93

>  <inspiration_ids>  (131) 
[93, 95]

>  <energy_score>  (131) 
712.6160313067828

>  <distance_score>  (131) 
6.1830132529873785

>  <path>  (131) 
/opt/xchem-fragalysis-2/maxwin/BulkDock/SCRATCH/511018/C4773-P93/C4773-P93.minimised.mol

>  <scratch_subdir>  (131) 
/opt/xchem-fragalysis-2/maxwin/BulkDock/SCRATCH/511018/C4773-P93

>  <fragmenstein_runtime>  (131) 
15.598942995071411

>  <fragmenstein_outcome>  (131) 
too moved

>  <fragmenstein_mode>  (131) 
expansion

>  <fragmenstein_error>  (131) 


$$$$
C4773-P95
     RDKit          3D

 45 47  0  0  0  0  0  0  0  0999 V2000
    1.0036   -2.2957    8.1634 O   0  0  0  0  0  0  0  0  0  0  0  0
    0.5149   -1.8221    9.1817 C   0  0  0  0  0  0  0  0  0  0  0  0
   -1.5545   -1.4151    8.8407 C   0  0  0  0  0  0  0  0  0  0  0  0
   -2.9979   -1.8433    8.4018 N   0  0  0  0  0  0  0  0  0  0  0  0
   -3.5869   -2.0096    7.0710 C   0  0  0  0  0  0  0  0  0  0  0  0
   -3.0884   -1.9385    5.9795 O   0  0  0  0  0  0  0  0  0  0  0  0
   -5.1361   -2.2199    7.0697 C   0  0  0  0  0  0  0  0  0  0  0  0
   -5.9339   -1.0686    7.6711 C   0  0  0  0  0  0  0  0  0  0  0  0
   -7.0428   -0.7993    6.6721 C   0  0  0  0  0  0  0  0  0  0  0  0
   -6.3863   -1.1382    5.3564 C   0  0  0  0  0  0  0  0  0  0  0  0
   -5.6363   -2.3517    5.6635 N   0  0  0  0  0  0  0  0  0  0  0  0
    1.5151   -1.5884   10.6167 N   0  0  0  0  0  0  0  0  0  0  0  0
    3.2044   -2.0136   10.9437 C   0  0  0  0  0  0  0  0  0  0  0  0
    4.4576   -2.9056   11.8881 C   0  0  0  0  0  0  0  0  0  0  0  0
    6.0271   -1.9716   12.6266 C   0  0  0  0  0  0  0  0  0  0  0  0
    7.0153   -1.0706   12.2615 C   0  0  0  0  0  0  0  0  0  0  0  0
    7.8955   -0.6963   13.4319 C   0  0  0  0  0  0  0  0  0  0  0  0
    8.9806    0.2826   13.6863 C   0  0  0  0  0  0  0  0  0  0  0  0
    9.4899    0.5755   14.9384 C   0  0  0  0  0  0  0  0  0  0  0  0
    8.7776    0.0959   15.9915 C   0  0  0  0  0  0  0  0  0  0  0  0
    7.7159   -0.7887   15.7534 C   0  0  0  0  0  0  0  0  0  0  0  0
    7.4056   -1.3779   14.5121 C   0  0  0  0  0  0  0  0  0  0  0  0
    6.3604   -2.1533   14.0375 N   0  0  0  0  0  0  0  0  0  0  0  0
   -1.5188   -1.4891    7.7275 H   0  0  0  0  0  0  0  0  0  0  0  0
   -1.8985   -0.3853    8.7780 H   0  0  0  0  0  0  0  0  0  0  0  0
   -3.7255   -1.8884    9.0910 H   0  0  0  0  0  0  0  0  0  0  0  0
   -5.3594   -3.1843    7.5080 H   0  0  0  0  0  0  0  0  0  0  0  0
   -5.3134   -0.1731    7.7881 H   0  0  0  0  0  0  0  0  0  0  0  0
   -6.3588   -1.3056    8.6464 H   0  0  0  0  0  0  0  0  0  0  0  0
   -7.3945    0.2356    6.7132 H   0  0  0  0  0  0  0  0  0  0  0  0
   -7.8960   -1.4618    6.8636 H   0  0  0  0  0  0  0  0  0  0  0  0
   -5.7064   -0.3373    5.0426 H   0  0  0  0  0  0  0  0  0  0  0  0
   -7.1161   -1.3082    4.5602 H   0  0  0  0  0  0  0  0  0  0  0  0
   -4.8091   -2.4000    5.0557 H   0  0  0  0  0  0  0  0  0  0  0  0
    0.9168   -1.2729   11.3701 H   0  0  0  0  0  0  0  0  0  0  0  0
    3.3426   -2.5123    9.9934 H   0  0  0  0  0  0  0  0  0  0  0  0
    3.6438   -1.0495   11.0973 H   0  0  0  0  0  0  0  0  0  0  0  0
    4.7485   -3.7953   11.3588 H   0  0  0  0  0  0  0  0  0  0  0  0
    3.7828   -3.2518   12.6911 H   0  0  0  0  0  0  0  0  0  0  0  0
    7.1400   -0.6923   11.2652 H   0  0  0  0  0  0  0  0  0  0  0  0
    9.4223    0.8069   12.8463 H   0  0  0  0  0  0  0  0  0  0  0  0
   10.2860    1.2993   15.0668 H   0  0  0  0  0  0  0  0  0  0  0  0
    8.9114    0.5378   16.9756 H   0  0  0  0  0  0  0  0  0  0  0  0
    6.9266   -0.7262   16.4955 H   0  0  0  0  0  0  0  0  0  0  0  0
    5.7499   -2.6787   14.6359 H   0  0  0  0  0  0  0  0  0  0  0  0
  1  2  2  0
  2  3  1  0
  3  4  1  0
  4  5  1  0
  5  6  2  0
  5  7  1  0
  7  8  1  0
  8  9  1  0
  9 10  1  0
 10 11  1  0
  2 12  1  0
 12 13  1  0
 13 14  1  0
 14 15  1  0
 15 16  2  0
 16 17  1  0
 17 18  2  0
 18 19  1  0
 19 20  2  0
 20 21  1  0
 21 22  2  0
 22 23  1  0
 11  7  1  0
 23 15  1  0
 22 17  1  0
  3 24  1  0
  3 25  1  0
  4 26  1  0
  7 27  1  0
  8 28  1  0
  8 29  1  0
  9 30  1  0
  9 31  1  0
 10 32  1  0
 10 33  1  0
 11 34  1  0
 12 35  1  0
 13 36  1  0
 13 37  1  0
 14 38  1  0
 14 39  1  0
 16 40  1  0
 18 41  1  0
 19 42  1  0
 20 43  1  0
 21 44  1  0
 23 45  1  0
M  END
>  <Energy>  (132) 
461.17471084380179

>  <compound_id>  (132) 
4773

>  <target_id>  (132) 
1

>  <reference_id>  (132) 
95

>  <inspiration_ids>  (132) 
[93, 95]

>  <energy_score>  (132) 
372.75964114688543

>  <distance_score>  (132) 
6.300697130403784

>  <path>  (132) 
/opt/xchem-fragalysis-2/maxwin/BulkDock/SCRATCH/511018/C4773-P95/C4773-P95.minimised.mol

>  <scratch_subdir>  (132) 
/opt/xchem-fragalysis-2/maxwin/BulkDock/SCRATCH/511018/C4773-P95

>  <fragmenstein_runtime>  (132) 
19.80614995956421

>  <fragmenstein_outcome>  (132) 
too moved

>  <fragmenstein_mode>  (132) 
expansion

>  <fragmenstein_error>  (132) 


$$$$
C4774-P93
     RDKit          3D

 45 47  0  0  0  0  0  0  0  0999 V2000
    1.1193   -0.9541   10.9319 O   0  0  0  0  0  0  0  0  0  0  0  0
    1.4963   -1.7989   10.2626 C   0  0  0  0  0  0  0  0  0  0  0  0
    0.4887   -2.2928    8.8822 N   0  0  0  0  0  0  0  0  0  0  0  0
   -1.4180   -1.6825    8.2893 C   0  0  0  0  0  0  0  0  0  0  0  0
   -2.9419   -2.2565    8.0996 C   0  0  0  0  0  0  0  0  0  0  0  0
   -4.0086   -1.1585    7.7471 C   0  0  0  0  0  0  0  0  0  0  0  0
   -5.4323   -1.4937    7.2222 C   0  0  0  0  0  0  0  0  0  0  0  0
   -6.6271   -1.0090    8.0307 C   0  0  0  0  0  0  0  0  0  0  0  0
   -7.7961   -1.8243    7.4774 C   0  0  0  0  0  0  0  0  0  0  0  0
   -7.1666   -2.9516    6.6684 C   0  0  0  0  0  0  0  0  0  0  0  0
   -5.7366   -2.8909    6.9727 N   0  0  0  0  0  0  0  0  0  0  0  0
    3.1646   -2.5540   11.0429 C   0  0  0  0  0  0  0  0  0  0  0  0
    3.2513   -3.7573   11.1933 O   0  0  0  0  0  0  0  0  0  0  0  0
    4.3843   -1.2462   11.5845 N   0  0  0  0  0  0  0  0  0  0  0  0
    6.0663   -1.4326   12.4454 C   0  0  0  0  0  0  0  0  0  0  0  0
    7.1533   -0.8035   12.0064 C   0  0  0  0  0  0  0  0  0  0  0  0
    8.2006   -0.3025   12.9206 C   0  0  0  0  0  0  0  0  0  0  0  0
    8.5287   -0.6989   14.2181 C   0  0  0  0  0  0  0  0  0  0  0  0
    9.4736   -0.2259   15.1531 C   0  0  0  0  0  0  0  0  0  0  0  0
    8.6920   -0.2019   16.2596 C   0  0  0  0  0  0  0  0  0  0  0  0
    7.5794   -0.9614   15.9604 N   0  0  0  0  0  0  0  0  0  0  0  0
    7.5965   -1.5770   14.7091 C   0  0  0  0  0  0  0  0  0  0  0  0
    6.4625   -2.0538   13.8368 C   0  0  0  0  0  0  0  0  0  0  0  0
    1.0105   -3.0012    8.3346 H   0  0  0  0  0  0  0  0  0  0  0  0
   -1.2839   -1.3627    7.2725 H   0  0  0  0  0  0  0  0  0  0  0  0
   -1.6769   -0.8240    8.9399 H   0  0  0  0  0  0  0  0  0  0  0  0
   -3.0479   -3.1258    7.4639 H   0  0  0  0  0  0  0  0  0  0  0  0
   -3.1954   -2.5891    9.0509 H   0  0  0  0  0  0  0  0  0  0  0  0
   -3.5489   -0.6205    6.9287 H   0  0  0  0  0  0  0  0  0  0  0  0
   -4.0842   -0.4562    8.5855 H   0  0  0  0  0  0  0  0  0  0  0  0
   -5.5638   -0.9325    6.2920 H   0  0  0  0  0  0  0  0  0  0  0  0
   -6.5105   -1.1879    9.0946 H   0  0  0  0  0  0  0  0  0  0  0  0
   -6.7991    0.0654    7.9023 H   0  0  0  0  0  0  0  0  0  0  0  0
   -8.4308   -1.2027    6.8361 H   0  0  0  0  0  0  0  0  0  0  0  0
   -8.4205   -2.2112    8.2877 H   0  0  0  0  0  0  0  0  0  0  0  0
   -7.3333   -2.7874    5.5976 H   0  0  0  0  0  0  0  0  0  0  0  0
   -7.5845   -3.9276    6.9330 H   0  0  0  0  0  0  0  0  0  0  0  0
   -5.1887   -3.2993    6.2230 H   0  0  0  0  0  0  0  0  0  0  0  0
    4.0870   -0.3103   11.2428 H   0  0  0  0  0  0  0  0  0  0  0  0
    7.0870   -0.5358   10.9679 H   0  0  0  0  0  0  0  0  0  0  0  0
    8.9178    0.4686   12.7212 H   0  0  0  0  0  0  0  0  0  0  0  0
   10.3415    0.3948   14.9738 H   0  0  0  0  0  0  0  0  0  0  0  0
    8.7396    0.3785   17.1713 H   0  0  0  0  0  0  0  0  0  0  0  0
    6.7477   -0.8562   16.5153 H   0  0  0  0  0  0  0  0  0  0  0  0
    5.7449   -2.6611   14.3864 H   0  0  0  0  0  0  0  0  0  0  0  0
  1  2  2  0
  2  3  1  0
  3  4  1  0
  4  5  1  0
  5  6  1  0
  6  7  1  0
  7  8  1  0
  8  9  1  0
  9 10  1  0
 10 11  1  0
  2 12  1  0
 12 13  2  0
 12 14  1  0
 14 15  1  0
 15 16  2  0
 16 17  1  0
 17 18  2  0
 18 19  1  0
 19 20  2  0
 20 21  1  0
 21 22  1  0
 22 23  2  0
 11  7  1  0
 23 15  1  0
 22 18  1  0
  3 24  1  0
  4 25  1  0
  4 26  1  0
  5 27  1  0
  5 28  1  0
  6 29  1  0
  6 30  1  0
  7 31  1  0
  8 32  1  0
  8 33  1  0
  9 34  1  0
  9 35  1  0
 10 36  1  0
 10 37  1  0
 11 38  1  0
 14 39  1  0
 16 40  1  0
 17 41  1  0
 19 42  1  0
 20 43  1  0
 21 44  1  0
 23 45  1  0
M  END
>  <Energy>  (133) 
548.53715712755456

>  <compound_id>  (133) 
4774

>  <target_id>  (133) 
1

>  <reference_id>  (133) 
93

>  <inspiration_ids>  (133) 
[93, 95]

>  <energy_score>  (133) 
465.96506097388806

>  <distance_score>  (133) 
5.947324829153889

>  <path>  (133) 
/opt/xchem-fragalysis-2/maxwin/BulkDock/SCRATCH/511018/C4774-P93/C4774-P93.minimised.mol

>  <scratch_subdir>  (133) 
/opt/xchem-fragalysis-2/maxwin/BulkDock/SCRATCH/511018/C4774-P93

>  <fragmenstein_runtime>  (133) 
8.719626903533936

>  <fragmenstein_outcome>  (133) 
too moved

>  <fragmenstein_mode>  (133) 
expansion

>  <fragmenstein_error>  (133) 


$$$$
C4774-P95
     RDKit          3D

 45 47  0  0  0  0  0  0  0  0999 V2000
    1.2427   -1.9043    8.4752 O   0  0  0  0  0  0  0  0  0  0  0  0
    0.6081   -1.5703    9.4830 C   0  0  0  0  0  0  0  0  0  0  0  0
   -1.3436   -1.2782    9.2366 N   0  0  0  0  0  0  0  0  0  0  0  0
   -2.2936   -1.4910    8.0055 C   0  0  0  0  0  0  0  0  0  0  0  0
   -3.7262   -0.8683    8.0794 C   0  0  0  0  0  0  0  0  0  0  0  0
   -4.5647   -1.3328    6.8567 C   0  0  0  0  0  0  0  0  0  0  0  0
   -5.9462   -0.6766    6.6659 C   0  0  0  0  0  0  0  0  0  0  0  0
   -6.9755   -0.9587    7.7567 C   0  0  0  0  0  0  0  0  0  0  0  0
   -7.9670   -1.9514    7.1632 C   0  0  0  0  0  0  0  0  0  0  0  0
   -7.3388   -2.3843    5.8575 C   0  0  0  0  0  0  0  0  0  0  0  0
   -6.5650   -1.2089    5.4334 N   0  0  0  0  0  0  0  0  0  0  0  0
    1.8637   -1.5651   11.0909 C   0  0  0  0  0  0  0  0  0  0  0  0
    1.4180   -0.8893   12.0437 O   0  0  0  0  0  0  0  0  0  0  0  0
    3.5519   -2.4413   10.9086 N   0  0  0  0  0  0  0  0  0  0  0  0
    5.1651   -2.4762   12.0407 C   0  0  0  0  0  0  0  0  0  0  0  0
    6.3380   -1.3871   11.8469 C   0  0  0  0  0  0  0  0  0  0  0  0
    7.3471   -0.7077   12.5757 C   0  0  0  0  0  0  0  0  0  0  0  0
    7.8261   -1.0048   13.8181 C   0  0  0  0  0  0  0  0  0  0  0  0
    8.8472   -0.4806   14.6422 C   0  0  0  0  0  0  0  0  0  0  0  0
    9.2146   -1.6000   15.3028 C   0  0  0  0  0  0  0  0  0  0  0  0
    8.2195   -2.5420   15.0591 N   0  0  0  0  0  0  0  0  0  0  0  0
    7.1528   -2.0434   14.3374 C   0  0  0  0  0  0  0  0  0  0  0  0
    5.8346   -2.5098   13.6834 C   0  0  0  0  0  0  0  0  0  0  0  0
   -1.7609   -1.1058   10.1474 H   0  0  0  0  0  0  0  0  0  0  0  0
   -1.8262   -1.3290    7.0630 H   0  0  0  0  0  0  0  0  0  0  0  0
   -2.5936   -2.5368    8.0487 H   0  0  0  0  0  0  0  0  0  0  0  0
   -3.6761    0.2086    8.2181 H   0  0  0  0  0  0  0  0  0  0  0  0
   -4.2385   -1.2242    8.9709 H   0  0  0  0  0  0  0  0  0  0  0  0
   -3.9762   -1.1595    5.9463 H   0  0  0  0  0  0  0  0  0  0  0  0
   -4.6811   -2.4225    6.9298 H   0  0  0  0  0  0  0  0  0  0  0  0
   -5.8070    0.4041    6.5590 H   0  0  0  0  0  0  0  0  0  0  0  0
   -6.5190   -1.3487    8.6640 H   0  0  0  0  0  0  0  0  0  0  0  0
   -7.5067   -0.0402    8.0334 H   0  0  0  0  0  0  0  0  0  0  0  0
   -8.9245   -1.4492    6.9788 H   0  0  0  0  0  0  0  0  0  0  0  0
   -8.1584   -2.7976    7.8293 H   0  0  0  0  0  0  0  0  0  0  0  0
   -8.0884   -2.6619    5.1102 H   0  0  0  0  0  0  0  0  0  0  0  0
   -6.6757   -3.2446    6.0023 H   0  0  0  0  0  0  0  0  0  0  0  0
   -7.2303   -0.5143    5.0883 H   0  0  0  0  0  0  0  0  0  0  0  0
    3.5735   -2.9730   10.0516 H   0  0  0  0  0  0  0  0  0  0  0  0
    6.5299   -0.8175   10.9275 H   0  0  0  0  0  0  0  0  0  0  0  0
    7.9015    0.0604   12.0819 H   0  0  0  0  0  0  0  0  0  0  0  0
    9.4598    0.3951   14.4764 H   0  0  0  0  0  0  0  0  0  0  0  0
   10.1554   -1.8390   15.7821 H   0  0  0  0  0  0  0  0  0  0  0  0
    8.3726   -3.5163   15.2567 H   0  0  0  0  0  0  0  0  0  0  0  0
    5.1303   -2.7419   14.4999 H   0  0  0  0  0  0  0  0  0  0  0  0
  1  2  2  0
  2  3  1  0
  3  4  1  0
  4  5  1  0
  5  6  1  0
  6  7  1  0
  7  8  1  0
  8  9  1  0
  9 10  1  0
 10 11  1  0
  2 12  1  0
 12 13  2  0
 12 14  1  0
 14 15  1  0
 15 16  2  0
 16 17  1  0
 17 18  2  0
 18 19  1  0
 19 20  2  0
 20 21  1  0
 21 22  1  0
 22 23  2  0
 11  7  1  0
 23 15  1  0
 22 18  1  0
  3 24  1  0
  4 25  1  0
  4 26  1  0
  5 27  1  0
  5 28  1  0
  6 29  1  0
  6 30  1  0
  7 31  1  0
  8 32  1  0
  8 33  1  0
  9 34  1  0
  9 35  1  0
 10 36  1  0
 10 37  1  0
 11 38  1  0
 14 39  1  0
 16 40  1  0
 17 41  1  0
 19 42  1  0
 20 43  1  0
 21 44  1  0
 23 45  1  0
M  END
>  <Energy>  (134) 
650.89900639473785

>  <compound_id>  (134) 
4774

>  <target_id>  (134) 
1

>  <reference_id>  (134) 
95

>  <inspiration_ids>  (134) 
[93, 95]

>  <energy_score>  (134) 
568.3269102410811

>  <distance_score>  (134) 
5.968820098884801

>  <path>  (134) 
/opt/xchem-fragalysis-2/maxwin/BulkDock/SCRATCH/511018/C4774-P95/C4774-P95.minimised.mol

>  <scratch_subdir>  (134) 
/opt/xchem-fragalysis-2/maxwin/BulkDock/SCRATCH/511018/C4774-P95

>  <fragmenstein_runtime>  (134) 
9.71332836151123

>  <fragmenstein_outcome>  (134) 
too moved

>  <fragmenstein_mode>  (134) 
expansion

>  <fragmenstein_error>  (134) 


$$$$
C4827-P94
     RDKit          3D

 42 44  0  0  0  0  0  0  0  0999 V2000
   -9.2397  -16.2348   25.2273 C   0  0  0  0  0  0  0  0  0  0  0  0
   -7.9679  -16.5381   25.9948 C   0  0  0  0  0  0  0  0  0  0  0  0
   -6.8932  -17.2053   25.1614 N   0  0  0  0  0  0  0  0  0  0  0  0
   -5.8474  -16.2597   24.6811 C   0  0  0  0  0  0  0  0  0  0  0  0
   -4.9102  -15.5321   23.3842 N   0  0  0  0  0  0  0  0  0  0  0  0
   -3.1109  -15.2114   23.2549 C   0  0  0  0  0  0  0  0  0  0  0  0
   -2.3118  -15.4022   24.1658 O   0  0  0  0  0  0  0  0  0  0  0  0
   -2.0553  -14.6323   21.4514 C   0  0  0  0  0  0  0  0  0  0  0  0
   -2.3073  -13.1271   20.5254 O   0  0  0  0  0  0  0  0  0  0  0  0
   -1.7331  -11.8285   19.8644 C   0  0  0  0  0  0  0  0  0  0  0  0
   -1.1847  -10.4396   20.5030 C   0  0  0  0  0  0  0  0  0  0  0  0
   -0.2150   -9.5254   19.6776 C   0  0  0  0  0  0  0  0  0  0  0  0
    0.7733   -8.6829   20.1874 C   0  0  0  0  0  0  0  0  0  0  0  0
    1.5609   -8.0275   19.1893 C   0  0  0  0  0  0  0  0  0  0  0  0
    1.1226   -8.3392   17.9264 C   0  0  0  0  0  0  0  0  0  0  0  0
   -0.2431   -9.3807   17.9639 S   0  0  0  0  0  0  0  0  0  0  0  0
   -4.9515  -16.7064   25.5935 N   0  0  0  0  0  0  0  0  0  0  0  0
   -5.0786  -17.6893   26.5310 C   0  0  0  0  0  0  0  0  0  0  0  0
   -4.0739  -18.1382   27.4175 C   0  0  0  0  0  0  0  0  0  0  0  0
   -3.9794  -19.4859   27.6583 C   0  0  0  0  0  0  0  0  0  0  0  0
   -4.9591  -20.2705   27.1289 C   0  0  0  0  0  0  0  0  0  0  0  0
   -6.0981  -19.6829   26.5282 C   0  0  0  0  0  0  0  0  0  0  0  0
   -6.1260  -18.3549   26.0352 C   0  0  0  0  0  0  0  0  0  0  0  0
   -9.1019  -15.3241   24.6330 H   0  0  0  0  0  0  0  0  0  0  0  0
  -10.0732  -16.0564   25.9128 H   0  0  0  0  0  0  0  0  0  0  0  0
   -9.5100  -17.0180   24.5175 H   0  0  0  0  0  0  0  0  0  0  0  0
   -8.1677  -17.1763   26.8615 H   0  0  0  0  0  0  0  0  0  0  0  0
   -7.5490  -15.6027   26.3808 H   0  0  0  0  0  0  0  0  0  0  0  0
   -5.3391  -15.3798   22.4869 H   0  0  0  0  0  0  0  0  0  0  0  0
   -1.0536  -14.7654   22.0010 H   0  0  0  0  0  0  0  0  0  0  0  0
   -2.2199  -15.3017   20.5592 H   0  0  0  0  0  0  0  0  0  0  0  0
   -1.2103  -12.0443   18.9277 H   0  0  0  0  0  0  0  0  0  0  0  0
   -2.6868  -11.4776   19.4380 H   0  0  0  0  0  0  0  0  0  0  0  0
   -2.0721   -9.8239   20.7111 H   0  0  0  0  0  0  0  0  0  0  0  0
   -0.7361  -10.5931   21.4841 H   0  0  0  0  0  0  0  0  0  0  0  0
    0.9628   -8.5959   21.2513 H   0  0  0  0  0  0  0  0  0  0  0  0
    2.4005   -7.3794   19.4009 H   0  0  0  0  0  0  0  0  0  0  0  0
    1.5168   -7.9987   16.9799 H   0  0  0  0  0  0  0  0  0  0  0  0
   -3.2592  -17.4807   27.7048 H   0  0  0  0  0  0  0  0  0  0  0  0
   -3.1509  -19.9007   28.2206 H   0  0  0  0  0  0  0  0  0  0  0  0
   -4.9213  -21.3465   27.2919 H   0  0  0  0  0  0  0  0  0  0  0  0
   -6.8729  -20.4015   26.5782 H   0  0  0  0  0  0  0  0  0  0  0  0
  1  2  1  0
  2  3  1  0
  3  4  1  0
  4  5  1  0
  5  6  1  0
  6  7  2  0
  6  8  1  0
  8  9  1  0
  9 10  1  0
 10 11  1  0
 11 12  1  0
 12 13  2  0
 13 14  1  0
 14 15  2  0
 15 16  1  0
  4 17  2  0
 17 18  1  0
 18 19  2  0
 19 20  1  0
 20 21  2  0
 21 22  1  0
 22 23  2  0
 23  3  1  0
 16 12  1  0
 23 18  1  0
  1 24  1  0
  1 25  1  0
  1 26  1  0
  2 27  1  0
  2 28  1  0
  5 29  1  0
  8 30  1  0
  8 31  1  0
 10 32  1  0
 10 33  1  0
 11 34  1  0
 11 35  1  0
 13 36  1  0
 14 37  1  0
 15 38  1  0
 19 39  1  0
 20 40  1  0
 21 41  1  0
 22 42  1  0
M  END
>  <Energy>  (135) 
530.97593387872882

>  <compound_id>  (135) 
4827

>  <target_id>  (135) 
1

>  <reference_id>  (135) 
94

>  <inspiration_ids>  (135) 
[94, 76]

>  <energy_score>  (135) 
428.42155027641434

>  <distance_score>  (135) 
15.418697747839012

>  <path>  (135) 
/opt/xchem-fragalysis-2/maxwin/BulkDock/SCRATCH/511018/C4827-P94/C4827-P94.minimised.mol

>  <scratch_subdir>  (135) 
/opt/xchem-fragalysis-2/maxwin/BulkDock/SCRATCH/511018/C4827-P94

>  <fragmenstein_runtime>  (135) 
21.226563215255737

>  <fragmenstein_outcome>  (135) 
too moved

>  <fragmenstein_mode>  (135) 
expansion

>  <fragmenstein_error>  (135) 


$$$$
C4827-P76
     RDKit          3D

 42 44  0  0  0  0  0  0  0  0999 V2000
   -1.2436  -13.1945   28.8779 C   0  0  0  0  0  0  0  0  0  0  0  0
   -1.4988  -13.1233   27.3704 C   0  0  0  0  0  0  0  0  0  0  0  0
   -1.9396  -14.3268   26.6606 N   0  0  0  0  0  0  0  0  0  0  0  0
   -1.4956  -14.5735   24.9902 C   0  0  0  0  0  0  0  0  0  0  0  0
   -0.0104  -14.0694   23.9243 N   0  0  0  0  0  0  0  0  0  0  0  0
    1.6205  -13.1276   24.3455 C   0  0  0  0  0  0  0  0  0  0  0  0
    1.7753  -12.8796   25.4810 O   0  0  0  0  0  0  0  0  0  0  0  0
    3.0939  -12.3875   23.0362 C   0  0  0  0  0  0  0  0  0  0  0  0
    4.5144  -11.3129   22.2149 O   0  0  0  0  0  0  0  0  0  0  0  0
    5.0744   -9.6418   21.4368 C   0  0  0  0  0  0  0  0  0  0  0  0
    6.5524   -8.8370   20.2634 C   0  0  0  0  0  0  0  0  0  0  0  0
    7.2128   -7.1385   19.3981 C   0  0  0  0  0  0  0  0  0  0  0  0
    8.9845   -6.2148   19.1918 C   0  0  0  0  0  0  0  0  0  0  0  0
    8.1031   -4.7210   20.0773 C   0  0  0  0  0  0  0  0  0  0  0  0
    6.7259   -4.8798   20.4339 C   0  0  0  0  0  0  0  0  0  0  0  0
    5.8952   -5.9699   19.3757 S   0  0  0  0  0  0  0  0  0  0  0  0
   -2.4536  -15.7468   24.9500 N   0  0  0  0  0  0  0  0  0  0  0  0
   -2.6359  -16.7399   26.4262 C   0  0  0  0  0  0  0  0  0  0  0  0
   -3.0409  -18.0502   26.7940 C   0  0  0  0  0  0  0  0  0  0  0  0
   -3.1238  -18.3818   28.1521 C   0  0  0  0  0  0  0  0  0  0  0  0
   -2.7627  -17.4661   29.1407 C   0  0  0  0  0  0  0  0  0  0  0  0
   -2.2902  -16.1707   28.8431 C   0  0  0  0  0  0  0  0  0  0  0  0
   -2.2270  -15.7717   27.4867 C   0  0  0  0  0  0  0  0  0  0  0  0
   -0.4975  -13.9591   29.1143 H   0  0  0  0  0  0  0  0  0  0  0  0
   -0.8200  -12.2362   29.2021 H   0  0  0  0  0  0  0  0  0  0  0  0
   -2.1330  -13.3449   29.4906 H   0  0  0  0  0  0  0  0  0  0  0  0
   -0.5669  -12.7966   26.9059 H   0  0  0  0  0  0  0  0  0  0  0  0
   -2.2433  -12.3529   27.1437 H   0  0  0  0  0  0  0  0  0  0  0  0
   -0.0806  -14.1538   22.9131 H   0  0  0  0  0  0  0  0  0  0  0  0
    2.6666  -11.4765   23.3524 H   0  0  0  0  0  0  0  0  0  0  0  0
    3.8830  -12.9447   23.5570 H   0  0  0  0  0  0  0  0  0  0  0  0
    4.1415   -9.2917   20.9925 H   0  0  0  0  0  0  0  0  0  0  0  0
    5.2340   -9.1257   22.3896 H   0  0  0  0  0  0  0  0  0  0  0  0
    7.4729   -9.2090   20.7305 H   0  0  0  0  0  0  0  0  0  0  0  0
    6.4045   -9.4184   19.3399 H   0  0  0  0  0  0  0  0  0  0  0  0
    9.2938   -7.4110   19.7258 H   0  0  0  0  0  0  0  0  0  0  0  0
    8.7908   -3.9906   20.3874 H   0  0  0  0  0  0  0  0  0  0  0  0
    6.1433   -4.1935   21.0324 H   0  0  0  0  0  0  0  0  0  0  0  0
   -3.3059  -18.8203   26.0824 H   0  0  0  0  0  0  0  0  0  0  0  0
   -3.4665  -19.3725   28.4457 H   0  0  0  0  0  0  0  0  0  0  0  0
   -2.8443  -17.7635   30.1865 H   0  0  0  0  0  0  0  0  0  0  0  0
   -2.0426  -15.5092   29.6618 H   0  0  0  0  0  0  0  0  0  0  0  0
  1  2  1  0
  2  3  1  0
  3  4  1  0
  4  5  1  0
  5  6  1  0
  6  7  2  0
  6  8  1  0
  8  9  1  0
  9 10  1  0
 10 11  1  0
 11 12  1  0
 12 13  2  0
 13 14  1  0
 14 15  2  0
 15 16  1  0
  4 17  2  0
 17 18  1  0
 18 19  2  0
 19 20  1  0
 20 21  2  0
 21 22  1  0
 22 23  2  0
 23  3  1  0
 16 12  1  0
 23 18  1  0
  1 24  1  0
  1 25  1  0
  1 26  1  0
  2 27  1  0
  2 28  1  0
  5 29  1  0
  8 30  1  0
  8 31  1  0
 10 32  1  0
 10 33  1  0
 11 34  1  0
 11 35  1  0
 13 36  1  0
 14 37  1  0
 15 38  1  0
 19 39  1  0
 20 40  1  0
 21 41  1  0
 22 42  1  0
M  END
>  <Energy>  (136) 
1143.7737576876589

>  <compound_id>  (136) 
4827

>  <target_id>  (136) 
1

>  <reference_id>  (136) 
76

>  <inspiration_ids>  (136) 
[94, 76]

>  <energy_score>  (136) 
1041.219374085343

>  <distance_score>  (136) 
13.741592369745291

>  <path>  (136) 
/opt/xchem-fragalysis-2/maxwin/BulkDock/SCRATCH/511018/C4827-P76/C4827-P76.minimised.mol

>  <scratch_subdir>  (136) 
/opt/xchem-fragalysis-2/maxwin/BulkDock/SCRATCH/511018/C4827-P76

>  <fragmenstein_runtime>  (136) 
8.83434796333313

>  <fragmenstein_outcome>  (136) 
too moved

>  <fragmenstein_mode>  (136) 
expansion

>  <fragmenstein_error>  (136) 


$$$$
C4829-P94
     RDKit          3D

 32 34  0  0  0  0  0  0  0  0999 V2000
    5.6250  -15.0525   19.5269 C   0  0  0  0  0  0  0  0  0  0  0  0
    5.0055  -14.5412   20.7749 N   0  0  0  0  0  0  0  0  0  0  0  0
    5.3824  -13.1992   20.1300 C   0  0  0  0  0  0  0  0  0  0  0  0
    6.7648  -12.6147   19.7080 C   0  0  0  0  0  0  0  0  0  0  0  0
    7.1169  -12.1890   18.4274 C   0  0  0  0  0  0  0  0  0  0  0  0
    8.3547  -11.4798   18.3768 C   0  0  0  0  0  0  0  0  0  0  0  0
    8.9252  -11.3728   19.6222 C   0  0  0  0  0  0  0  0  0  0  0  0
    7.9762  -12.1326   20.8278 S   0  0  0  0  0  0  0  0  0  0  0  0
    3.4767  -14.5145   21.2758 C   0  0  0  0  0  0  0  0  0  0  0  0
    2.5785  -14.8634   20.5729 O   0  0  0  0  0  0  0  0  0  0  0  0
    2.8902  -14.0957   23.0923 C   0  0  0  0  0  0  0  0  0  0  0  0
    1.7346  -14.8202   23.0175 N   0  0  0  0  0  0  0  0  0  0  0  0
   -0.0598  -14.4812   22.6384 C   0  0  0  0  0  0  0  0  0  0  0  0
   -1.2511  -15.5838   22.1539 C   0  0  0  0  0  0  0  0  0  0  0  0
   -2.4242  -16.0713   22.8014 C   0  0  0  0  0  0  0  0  0  0  0  0
   -2.5418  -15.7130   24.1147 C   0  0  0  0  0  0  0  0  0  0  0  0
   -1.4633  -14.8769   24.6808 C   0  0  0  0  0  0  0  0  0  0  0  0
   -0.0731  -14.3006   23.9830 C   0  0  0  0  0  0  0  0  0  0  0  0
    1.5906  -13.4989   24.1603 N   0  0  0  0  0  0  0  0  0  0  0  0
    5.4228  -16.1327   19.5926 H   0  0  0  0  0  0  0  0  0  0  0  0
    5.1231  -14.7977   18.5809 H   0  0  0  0  0  0  0  0  0  0  0  0
    6.7213  -15.0153   19.5172 H   0  0  0  0  0  0  0  0  0  0  0  0
    5.0264  -12.5075   20.8657 H   0  0  0  0  0  0  0  0  0  0  0  0
    4.6810  -13.0220   19.2934 H   0  0  0  0  0  0  0  0  0  0  0  0
    6.4883  -12.3519   17.5588 H   0  0  0  0  0  0  0  0  0  0  0  0
    8.7941  -11.0695   17.4749 H   0  0  0  0  0  0  0  0  0  0  0  0
    9.8552  -10.8900   19.8888 H   0  0  0  0  0  0  0  0  0  0  0  0
   -0.9105  -16.2532   21.3432 H   0  0  0  0  0  0  0  0  0  0  0  0
   -3.0738  -16.7990   22.3317 H   0  0  0  0  0  0  0  0  0  0  0  0
   -3.3873  -16.0004   24.7307 H   0  0  0  0  0  0  0  0  0  0  0  0
   -1.7927  -14.3954   25.6121 H   0  0  0  0  0  0  0  0  0  0  0  0
    1.7972  -13.0834   25.0547 H   0  0  0  0  0  0  0  0  0  0  0  0
  1  2  1  0
  2  3  1  0
  3  4  1  0
  4  5  2  0
  5  6  1  0
  6  7  2  0
  7  8  1  0
  2  9  1  0
  9 10  2  0
  9 11  1  0
 11 12  2  0
 12 13  1  0
 13 14  2  0
 14 15  1  0
 15 16  2  0
 16 17  1  0
 17 18  2  0
 18 19  1  0
  8  4  1  0
 19 11  1  0
 18 13  1  0
  1 20  1  0
  1 21  1  0
  1 22  1  0
  3 23  1  0
  3 24  1  0
  5 25  1  0
  6 26  1  0
  7 27  1  0
 14 28  1  0
 15 29  1  0
 16 30  1  0
 17 31  1  0
 19 32  1  0
M  END
>  <Energy>  (137) 
589.40413564705602

>  <compound_id>  (137) 
4829

>  <target_id>  (137) 
1

>  <reference_id>  (137) 
94

>  <inspiration_ids>  (137) 
[94, 76]

>  <energy_score>  (137) 
529.037054459609

>  <distance_score>  (137) 
16.22122801690137

>  <path>  (137) 
/opt/xchem-fragalysis-2/maxwin/BulkDock/SCRATCH/511018/C4829-P94/C4829-P94.minimised.mol

>  <scratch_subdir>  (137) 
/opt/xchem-fragalysis-2/maxwin/BulkDock/SCRATCH/511018/C4829-P94

>  <fragmenstein_runtime>  (137) 
12.1493399143219

>  <fragmenstein_outcome>  (137) 
too moved

>  <fragmenstein_mode>  (137) 
expansion

>  <fragmenstein_error>  (137) 


$$$$
C4829-P76
     RDKit          3D

 32 34  0  0  0  0  0  0  0  0999 V2000
    1.5540  -18.8915   18.5282 C   0  0  0  0  0  0  0  0  0  0  0  0
    0.6774  -18.7295   19.6979 N   0  0  0  0  0  0  0  0  0  0  0  0
    0.8830  -17.1792   19.3443 C   0  0  0  0  0  0  0  0  0  0  0  0
    2.2106  -16.3901   18.7931 C   0  0  0  0  0  0  0  0  0  0  0  0
    2.2768  -15.5881   17.6454 C   0  0  0  0  0  0  0  0  0  0  0  0
    3.4966  -14.8461   17.5061 C   0  0  0  0  0  0  0  0  0  0  0  0
    4.3670  -15.1123   18.5341 C   0  0  0  0  0  0  0  0  0  0  0  0
    3.7229  -16.2677   19.6228 S   0  0  0  0  0  0  0  0  0  0  0  0
   -0.7514  -19.0277   19.8695 C   0  0  0  0  0  0  0  0  0  0  0  0
   -1.5719  -19.3924   19.0668 O   0  0  0  0  0  0  0  0  0  0  0  0
   -1.3142  -18.9894   21.2908 C   0  0  0  0  0  0  0  0  0  0  0  0
   -2.4380  -18.3566   21.6534 N   0  0  0  0  0  0  0  0  0  0  0  0
   -2.9849  -19.0467   22.7326 C   0  0  0  0  0  0  0  0  0  0  0  0
   -4.1990  -18.8611   23.4281 C   0  0  0  0  0  0  0  0  0  0  0  0
   -4.5566  -19.7491   24.4566 C   0  0  0  0  0  0  0  0  0  0  0  0
   -3.7226  -20.8136   24.7908 C   0  0  0  0  0  0  0  0  0  0  0  0
   -2.5047  -21.0090   24.1198 C   0  0  0  0  0  0  0  0  0  0  0  0
   -2.1657  -20.1013   23.0993 C   0  0  0  0  0  0  0  0  0  0  0  0
   -1.0915  -20.0058   22.2283 N   0  0  0  0  0  0  0  0  0  0  0  0
    1.4918  -19.9733   18.3314 H   0  0  0  0  0  0  0  0  0  0  0  0
    2.6161  -18.7617   18.7538 H   0  0  0  0  0  0  0  0  0  0  0  0
    1.1841  -18.4837   17.5751 H   0  0  0  0  0  0  0  0  0  0  0  0
    0.5929  -16.6750   20.2697 H   0  0  0  0  0  0  0  0  0  0  0  0
    0.0690  -16.9175   18.6442 H   0  0  0  0  0  0  0  0  0  0  0  0
    1.4457  -15.4974   16.9549 H   0  0  0  0  0  0  0  0  0  0  0  0
    3.7116  -14.1505   16.7035 H   0  0  0  0  0  0  0  0  0  0  0  0
    5.3513  -14.6947   18.6982 H   0  0  0  0  0  0  0  0  0  0  0  0
   -4.8518  -18.0416   23.1485 H   0  0  0  0  0  0  0  0  0  0  0  0
   -5.4881  -19.5977   24.9922 H   0  0  0  0  0  0  0  0  0  0  0  0
   -4.0122  -21.5000   25.5835 H   0  0  0  0  0  0  0  0  0  0  0  0
   -1.8540  -21.8382   24.3784 H   0  0  0  0  0  0  0  0  0  0  0  0
   -0.3637  -20.6964   22.1329 H   0  0  0  0  0  0  0  0  0  0  0  0
  1  2  1  0
  2  3  1  0
  3  4  1  0
  4  5  2  0
  5  6  1  0
  6  7  2  0
  7  8  1  0
  2  9  1  0
  9 10  2  0
  9 11  1  0
 11 12  2  0
 12 13  1  0
 13 14  2  0
 14 15  1  0
 15 16  2  0
 16 17  1  0
 17 18  2  0
 18 19  1  0
  8  4  1  0
 19 11  1  0
 18 13  1  0
  1 20  1  0
  1 21  1  0
  1 22  1  0
  3 23  1  0
  3 24  1  0
  5 25  1  0
  6 26  1  0
  7 27  1  0
 14 28  1  0
 15 29  1  0
 16 30  1  0
 17 31  1  0
 19 32  1  0
M  END
>  <Energy>  (138) 
128.56613059675365

>  <compound_id>  (138) 
4829

>  <target_id>  (138) 
1

>  <reference_id>  (138) 
76

>  <inspiration_ids>  (138) 
[94, 76]

>  <energy_score>  (138) 
68.19904940931497

>  <distance_score>  (138) 
17.561838312793903

>  <path>  (138) 
/opt/xchem-fragalysis-2/maxwin/BulkDock/SCRATCH/511018/C4829-P76/C4829-P76.minimised.mol

>  <scratch_subdir>  (138) 
/opt/xchem-fragalysis-2/maxwin/BulkDock/SCRATCH/511018/C4829-P76

>  <fragmenstein_runtime>  (138) 
10.537527561187744

>  <fragmenstein_outcome>  (138) 
too moved

>  <fragmenstein_mode>  (138) 
expansion

>  <fragmenstein_error>  (138) 


$$$$
C4830-P94
     RDKit          3D

 39 41  0  0  0  0  0  0  0  0999 V2000
    0.0558  -18.4352   18.4594 O   0  0  0  0  0  0  0  0  0  0  0  0
   -0.7966  -17.6150   18.6581 C   0  0  0  0  0  0  0  0  0  0  0  0
   -0.8405  -16.3611   17.6980 C   0  0  0  0  0  0  0  0  0  0  0  0
    0.4096  -15.7914   17.1565 N   0  0  0  0  0  0  0  0  0  0  0  0
    0.6394  -14.9023   16.0432 C   0  0  0  0  0  0  0  0  0  0  0  0
   -0.1182  -14.4646   15.2277 O   0  0  0  0  0  0  0  0  0  0  0  0
    2.0469  -14.3593   15.9561 C   0  0  0  0  0  0  0  0  0  0  0  0
    2.5150  -13.4194   15.0288 C   0  0  0  0  0  0  0  0  0  0  0  0
    3.8293  -12.9213   15.3036 C   0  0  0  0  0  0  0  0  0  0  0  0
    4.3621  -13.5163   16.4210 C   0  0  0  0  0  0  0  0  0  0  0  0
    3.2958  -14.6834   17.0869 S   0  0  0  0  0  0  0  0  0  0  0  0
   -1.8662  -17.5740   19.6579 N   0  0  0  0  0  0  0  0  0  0  0  0
   -2.2890  -18.5739   20.6692 C   0  0  0  0  0  0  0  0  0  0  0  0
   -3.3347  -18.0911   21.7100 C   0  0  0  0  0  0  0  0  0  0  0  0
   -3.8596  -19.1500   22.6800 C   0  0  0  0  0  0  0  0  0  0  0  0
   -3.7464  -19.1655   24.0005 N   0  0  0  0  0  0  0  0  0  0  0  0
   -4.3533  -20.3288   24.4355 C   0  0  0  0  0  0  0  0  0  0  0  0
   -4.4571  -20.8831   25.7235 C   0  0  0  0  0  0  0  0  0  0  0  0
   -5.0686  -22.1343   25.8638 C   0  0  0  0  0  0  0  0  0  0  0  0
   -5.5838  -22.7960   24.7449 C   0  0  0  0  0  0  0  0  0  0  0  0
   -5.5322  -22.2449   23.4662 C   0  0  0  0  0  0  0  0  0  0  0  0
   -4.8979  -21.0128   23.3580 C   0  0  0  0  0  0  0  0  0  0  0  0
   -4.6250  -20.2207   22.2724 N   0  0  0  0  0  0  0  0  0  0  0  0
   -1.4624  -16.6346   16.8381 H   0  0  0  0  0  0  0  0  0  0  0  0
   -1.3497  -15.5350   18.2023 H   0  0  0  0  0  0  0  0  0  0  0  0
    1.2688  -15.8850   17.6872 H   0  0  0  0  0  0  0  0  0  0  0  0
    1.8974  -13.0655   14.2096 H   0  0  0  0  0  0  0  0  0  0  0  0
    4.3419  -12.1666   14.7192 H   0  0  0  0  0  0  0  0  0  0  0  0
    5.3258  -13.3391   16.8797 H   0  0  0  0  0  0  0  0  0  0  0  0
   -2.4554  -16.7689   19.4804 H   0  0  0  0  0  0  0  0  0  0  0  0
   -2.6859  -19.4241   20.1030 H   0  0  0  0  0  0  0  0  0  0  0  0
   -1.3811  -18.9273   21.1706 H   0  0  0  0  0  0  0  0  0  0  0  0
   -2.8964  -17.2731   22.2953 H   0  0  0  0  0  0  0  0  0  0  0  0
   -4.1943  -17.6626   21.1793 H   0  0  0  0  0  0  0  0  0  0  0  0
   -4.0366  -20.3602   26.5756 H   0  0  0  0  0  0  0  0  0  0  0  0
   -5.1375  -22.5887   26.8471 H   0  0  0  0  0  0  0  0  0  0  0  0
   -6.0594  -23.7599   24.8425 H   0  0  0  0  0  0  0  0  0  0  0  0
   -5.9404  -22.7689   22.6094 H   0  0  0  0  0  0  0  0  0  0  0  0
   -4.8783  -20.4347   21.3191 H   0  0  0  0  0  0  0  0  0  0  0  0
  1  2  2  0
  2  3  1  0
  3  4  1  0
  4  5  1  0
  5  6  2  0
  5  7  1  0
  7  8  2  0
  8  9  1  0
  9 10  2  0
 10 11  1  0
  2 12  1  0
 12 13  1  0
 13 14  1  0
 14 15  1  0
 15 16  2  0
 16 17  1  0
 17 18  2  0
 18 19  1  0
 19 20  2  0
 20 21  1  0
 21 22  2  0
 22 23  1  0
 11  7  1  0
 23 15  1  0
 22 17  1  0
  3 24  1  0
  3 25  1  0
  4 26  1  0
  8 27  1  0
  9 28  1  0
 10 29  1  0
 12 30  1  0
 13 31  1  0
 13 32  1  0
 14 33  1  0
 14 34  1  0
 18 35  1  0
 19 36  1  0
 20 37  1  0
 21 38  1  0
 23 39  1  0
M  END
>  <Energy>  (139) 
41.512072812249379

>  <compound_id>  (139) 
4830

>  <target_id>  (139) 
1

>  <reference_id>  (139) 
94

>  <inspiration_ids>  (139) 
[94, 76]

>  <energy_score>  (139) 
-10.89961201328839

>  <distance_score>  (139) 
16.952267135923687

>  <path>  (139) 
/opt/xchem-fragalysis-2/maxwin/BulkDock/SCRATCH/511018/C4830-P94/C4830-P94.minimised.mol

>  <scratch_subdir>  (139) 
/opt/xchem-fragalysis-2/maxwin/BulkDock/SCRATCH/511018/C4830-P94

>  <fragmenstein_runtime>  (139) 
49.13963341712952

>  <fragmenstein_outcome>  (139) 
too moved

>  <fragmenstein_mode>  (139) 
expansion

>  <fragmenstein_error>  (139) 


$$$$
C4830-P76
     RDKit          3D

 39 41  0  0  0  0  0  0  0  0999 V2000
   -5.7712  -12.6763   18.0677 O   0  0  0  0  0  0  0  0  0  0  0  0
   -5.5852  -12.3941   19.2187 C   0  0  0  0  0  0  0  0  0  0  0  0
   -4.4820  -11.3025   19.6044 C   0  0  0  0  0  0  0  0  0  0  0  0
   -3.6598  -10.4341   18.7454 N   0  0  0  0  0  0  0  0  0  0  0  0
   -2.6284  -10.7520   17.7912 C   0  0  0  0  0  0  0  0  0  0  0  0
   -2.2329  -11.8101   17.3939 O   0  0  0  0  0  0  0  0  0  0  0  0
   -1.8719   -9.5366   17.3026 C   0  0  0  0  0  0  0  0  0  0  0  0
   -1.0427   -9.4519   16.1817 C   0  0  0  0  0  0  0  0  0  0  0  0
   -0.2106   -8.2862   16.1521 C   0  0  0  0  0  0  0  0  0  0  0  0
   -0.4514   -7.4707   17.2314 C   0  0  0  0  0  0  0  0  0  0  0  0
   -1.7031   -8.0890   18.2329 S   0  0  0  0  0  0  0  0  0  0  0  0
   -6.1596  -12.9691   20.4565 N   0  0  0  0  0  0  0  0  0  0  0  0
   -7.2158  -14.0054   20.6536 C   0  0  0  0  0  0  0  0  0  0  0  0
   -7.0944  -14.8064   21.9928 C   0  0  0  0  0  0  0  0  0  0  0  0
   -8.1359  -15.9009   22.2602 C   0  0  0  0  0  0  0  0  0  0  0  0
   -9.3390  -15.7624   22.7970 N   0  0  0  0  0  0  0  0  0  0  0  0
   -9.9558  -16.9948   22.7038 C   0  0  0  0  0  0  0  0  0  0  0  0
  -11.2894  -17.3717   22.9488 C   0  0  0  0  0  0  0  0  0  0  0  0
  -11.6898  -18.6917   22.6758 C   0  0  0  0  0  0  0  0  0  0  0  0
  -10.7691  -19.6311   22.2136 C   0  0  0  0  0  0  0  0  0  0  0  0
   -9.4359  -19.2730   21.9707 C   0  0  0  0  0  0  0  0  0  0  0  0
   -9.0693  -17.9458   22.2231 C   0  0  0  0  0  0  0  0  0  0  0  0
   -7.9000  -17.2449   22.0247 N   0  0  0  0  0  0  0  0  0  0  0  0
   -4.9597  -10.6178   20.3141 H   0  0  0  0  0  0  0  0  0  0  0  0
   -3.7190  -11.8835   20.1283 H   0  0  0  0  0  0  0  0  0  0  0  0
   -3.6678   -9.4327   18.9009 H   0  0  0  0  0  0  0  0  0  0  0  0
   -0.9915  -10.2500   15.4498 H   0  0  0  0  0  0  0  0  0  0  0  0
    0.5277   -8.0738   15.3891 H   0  0  0  0  0  0  0  0  0  0  0  0
    0.0266   -6.5335   17.4802 H   0  0  0  0  0  0  0  0  0  0  0  0
   -5.8383  -12.4252   21.2592 H   0  0  0  0  0  0  0  0  0  0  0  0
   -7.1755  -14.6816   19.7932 H   0  0  0  0  0  0  0  0  0  0  0  0
   -8.1769  -13.4814   20.6172 H   0  0  0  0  0  0  0  0  0  0  0  0
   -7.1382  -14.0954   22.8276 H   0  0  0  0  0  0  0  0  0  0  0  0
   -6.0977  -15.2634   22.0352 H   0  0  0  0  0  0  0  0  0  0  0  0
  -12.0032  -16.6290   23.2904 H   0  0  0  0  0  0  0  0  0  0  0  0
  -12.7289  -18.9819   22.8205 H   0  0  0  0  0  0  0  0  0  0  0  0
  -11.0962  -20.6501   22.0121 H   0  0  0  0  0  0  0  0  0  0  0  0
   -8.7302  -19.9943   21.5706 H   0  0  0  0  0  0  0  0  0  0  0  0
   -7.0532  -17.6270   21.6304 H   0  0  0  0  0  0  0  0  0  0  0  0
  1  2  2  0
  2  3  1  0
  3  4  1  0
  4  5  1  0
  5  6  2  0
  5  7  1  0
  7  8  2  0
  8  9  1  0
  9 10  2  0
 10 11  1  0
  2 12  1  0
 12 13  1  0
 13 14  1  0
 14 15  1  0
 15 16  2  0
 16 17  1  0
 17 18  2  0
 18 19  1  0
 19 20  2  0
 20 21  1  0
 21 22  2  0
 22 23  1  0
 11  7  1  0
 23 15  1  0
 22 17  1  0
  3 24  1  0
  3 25  1  0
  4 26  1  0
  8 27  1  0
  9 28  1  0
 10 29  1  0
 12 30  1  0
 13 31  1  0
 13 32  1  0
 14 33  1  0
 14 34  1  0
 18 35  1  0
 19 36  1  0
 20 37  1  0
 21 38  1  0
 23 39  1  0
M  END
>  <Energy>  (140) 
50.380550959450801

>  <compound_id>  (140) 
4830

>  <target_id>  (140) 
1

>  <reference_id>  (140) 
76

>  <inspiration_ids>  (140) 
[94, 76]

>  <energy_score>  (140) 
-2.0311338660853835

>  <distance_score>  (140) 
17.1896038749438

>  <path>  (140) 
/opt/xchem-fragalysis-2/maxwin/BulkDock/SCRATCH/511018/C4830-P76/C4830-P76.minimised.mol

>  <scratch_subdir>  (140) 
/opt/xchem-fragalysis-2/maxwin/BulkDock/SCRATCH/511018/C4830-P76

>  <fragmenstein_runtime>  (140) 
29.376457691192627

>  <fragmenstein_outcome>  (140) 
too moved

>  <fragmenstein_mode>  (140) 
expansion

>  <fragmenstein_error>  (140) 


$$$$
C4831-P94
     RDKit          3D

 40 42  0  0  0  0  0  0  0  0999 V2000
    7.5101   -9.0274   25.2718 C   0  0  0  0  0  0  0  0  0  0  0  0
    8.1187  -10.0145   24.3869 N   0  0  0  0  0  0  0  0  0  0  0  0
    9.5067  -10.2386   24.8438 C   0  0  0  0  0  0  0  0  0  0  0  0
    7.2990  -11.3687   24.1050 C   0  0  0  0  0  0  0  0  0  0  0  0
    7.1128  -12.2019   25.6745 C   0  0  0  0  0  0  0  0  0  0  0  0
    5.9941  -12.4942   26.6955 N   0  0  0  0  0  0  0  0  0  0  0  0
    5.8177  -12.0393   28.1230 C   0  0  0  0  0  0  0  0  0  0  0  0
    6.4723  -11.2702   28.7808 O   0  0  0  0  0  0  0  0  0  0  0  0
    4.5897  -12.7543   29.1083 C   0  0  0  0  0  0  0  0  0  0  0  0
    4.1875  -11.8794   30.1581 C   0  0  0  0  0  0  0  0  0  0  0  0
    3.4259  -12.2558   31.2827 C   0  0  0  0  0  0  0  0  0  0  0  0
    2.9976  -10.9374   32.5768 Br  0  0  0  0  0  0  0  0  0  0  0  0
    3.0415  -13.5651   31.5164 C   0  0  0  0  0  0  0  0  0  0  0  0
    3.3284  -14.4500   30.4880 C   0  0  0  0  0  0  0  0  0  0  0  0
    2.9493  -15.7743   30.3732 N   0  0  0  0  0  0  0  0  0  0  0  0
    3.2130  -16.1612   29.1044 C   0  0  0  0  0  0  0  0  0  0  0  0
    3.7929  -15.1850   28.4301 N   0  0  0  0  0  0  0  0  0  0  0  0
    3.9852  -14.0855   29.2764 C   0  0  0  0  0  0  0  0  0  0  0  0
    7.0770  -11.8722   22.3096 C   0  0  0  0  0  0  0  0  0  0  0  0
    7.7945  -12.7321   20.9742 C   0  0  0  0  0  0  0  0  0  0  0  0
    8.3337  -11.5544   19.6763 C   0  0  0  0  0  0  0  0  0  0  0  0
    7.1050  -10.8688   19.4537 C   0  0  0  0  0  0  0  0  0  0  0  0
    5.7969  -11.6926   20.6001 S   0  0  0  0  0  0  0  0  0  0  0  0
    7.6545   -9.2823   26.3283 H   0  0  0  0  0  0  0  0  0  0  0  0
    7.9591   -8.0424   25.1014 H   0  0  0  0  0  0  0  0  0  0  0  0
    6.4355   -8.9142   25.1432 H   0  0  0  0  0  0  0  0  0  0  0  0
   10.0595   -9.2918   24.8229 H   0  0  0  0  0  0  0  0  0  0  0  0
    9.5653  -10.6368   25.8610 H   0  0  0  0  0  0  0  0  0  0  0  0
   10.0552  -10.9200   24.1847 H   0  0  0  0  0  0  0  0  0  0  0  0
    8.2034  -12.0043   23.9874 H   0  0  0  0  0  0  0  0  0  0  0  0
    7.7414  -11.5817   26.3220 H   0  0  0  0  0  0  0  0  0  0  0  0
    7.7161  -13.1139   25.6339 H   0  0  0  0  0  0  0  0  0  0  0  0
    5.2078  -13.0874   26.4343 H   0  0  0  0  0  0  0  0  0  0  0  0
    4.5446  -10.8478   30.1199 H   0  0  0  0  0  0  0  0  0  0  0  0
    2.4920  -13.8618   32.4021 H   0  0  0  0  0  0  0  0  0  0  0  0
    2.4694  -16.3174   31.0762 H   0  0  0  0  0  0  0  0  0  0  0  0
    2.9683  -17.1395   28.7137 H   0  0  0  0  0  0  0  0  0  0  0  0
    6.9891  -13.3208   20.6738 H   0  0  0  0  0  0  0  0  0  0  0  0
    9.3418  -11.4974   19.2636 H   0  0  0  0  0  0  0  0  0  0  0  0
    6.7933  -10.2825   18.5929 H   0  0  0  0  0  0  0  0  0  0  0  0
  1  2  1  0
  2  3  1  0
  2  4  1  0
  4  5  1  0
  5  6  1  0
  6  7  1  0
  7  8  2  0
  7  9  1  0
  9 10  2  0
 10 11  1  0
 11 12  1  0
 11 13  2  0
 13 14  1  0
 14 15  1  0
 15 16  1  0
 16 17  2  0
 17 18  1  0
  4 19  1  0
 19 20  2  0
 20 21  1  0
 21 22  2  0
 22 23  1  0
 18  9  1  0
 23 19  1  0
 18 14  2  0
  1 24  1  0
  1 25  1  0
  1 26  1  0
  3 27  1  0
  3 28  1  0
  3 29  1  0
  4 30  1  0
  5 31  1  0
  5 32  1  0
  6 33  1  0
 10 34  1  0
 13 35  1  0
 15 36  1  0
 16 37  1  0
 20 38  1  0
 21 39  1  0
 22 40  1  0
M  END
>  <Energy>  (141) 
433.99956442202028

>  <compound_id>  (141) 
4831

>  <target_id>  (141) 
1

>  <reference_id>  (141) 
94

>  <inspiration_ids>  (141) 
[94, 76]

>  <energy_score>  (141) 
325.2300850269511

>  <distance_score>  (141) 
16.24889216286572

>  <path>  (141) 
/opt/xchem-fragalysis-2/maxwin/BulkDock/SCRATCH/511018/C4831-P94/C4831-P94.minimised.mol

>  <scratch_subdir>  (141) 
/opt/xchem-fragalysis-2/maxwin/BulkDock/SCRATCH/511018/C4831-P94

>  <fragmenstein_runtime>  (141) 
25.701857566833496

>  <fragmenstein_outcome>  (141) 
too moved

>  <fragmenstein_mode>  (141) 
expansion

>  <fragmenstein_error>  (141) 


$$$$
C4831-P76
     RDKit          3D

 40 42  0  0  0  0  0  0  0  0999 V2000
    5.5899  -11.9529   19.6658 C   0  0  0  0  0  0  0  0  0  0  0  0
    4.6613  -12.9546   20.0657 N   0  0  0  0  0  0  0  0  0  0  0  0
    4.0074  -13.6606   18.9081 C   0  0  0  0  0  0  0  0  0  0  0  0
    5.4004  -13.8420   21.3949 C   0  0  0  0  0  0  0  0  0  0  0  0
    4.6959  -15.0827   23.2884 C   0  0  0  0  0  0  0  0  0  0  0  0
    3.1270  -16.1324   23.6473 N   0  0  0  0  0  0  0  0  0  0  0  0
    2.7374  -17.7321   24.8170 C   0  0  0  0  0  0  0  0  0  0  0  0
    3.6258  -18.2848   25.4032 O   0  0  0  0  0  0  0  0  0  0  0  0
    0.8615  -18.6307   25.3679 C   0  0  0  0  0  0  0  0  0  0  0  0
   -0.6472  -18.1918   26.3126 C   0  0  0  0  0  0  0  0  0  0  0  0
   -1.6074  -18.5839   27.4521 C   0  0  0  0  0  0  0  0  0  0  0  0
   -3.4615  -18.1812   27.3956 Br  0  0  0  0  0  0  0  0  0  0  0  0
   -1.0969  -19.2341   28.4937 C   0  0  0  0  0  0  0  0  0  0  0  0
    0.1607  -18.7101   28.4388 C   0  0  0  0  0  0  0  0  0  0  0  0
    0.9400  -18.3803   29.5237 N   0  0  0  0  0  0  0  0  0  0  0  0
    1.9689  -17.6268   29.0863 C   0  0  0  0  0  0  0  0  0  0  0  0
    1.9913  -17.5490   27.7813 N   0  0  0  0  0  0  0  0  0  0  0  0
    0.8832  -18.2571   27.2198 C   0  0  0  0  0  0  0  0  0  0  0  0
    7.4078  -13.1165   20.9912 C   0  0  0  0  0  0  0  0  0  0  0  0
    8.4554  -11.9591   20.0371 C   0  0  0  0  0  0  0  0  0  0  0  0
   10.0026  -11.8772   19.5072 C   0  0  0  0  0  0  0  0  0  0  0  0
   10.5076  -13.1362   19.6050 C   0  0  0  0  0  0  0  0  0  0  0  0
    9.2069  -14.2855   20.0942 S   0  0  0  0  0  0  0  0  0  0  0  0
    5.9315  -11.3788   20.5087 H   0  0  0  0  0  0  0  0  0  0  0  0
    5.6401  -11.3552   18.7461 H   0  0  0  0  0  0  0  0  0  0  0  0
    6.1523  -12.7281   19.3353 H   0  0  0  0  0  0  0  0  0  0  0  0
    3.6909  -12.8433   18.2664 H   0  0  0  0  0  0  0  0  0  0  0  0
    4.6055  -14.4386   18.4352 H   0  0  0  0  0  0  0  0  0  0  0  0
    3.0709  -14.2509   19.0135 H   0  0  0  0  0  0  0  0  0  0  0  0
    4.6888  -12.8973   21.4715 H   0  0  0  0  0  0  0  0  0  0  0  0
    4.1204  -14.4398   24.0344 H   0  0  0  0  0  0  0  0  0  0  0  0
    5.3468  -15.6030   24.0192 H   0  0  0  0  0  0  0  0  0  0  0  0
    2.3235  -15.7700   23.3392 H   0  0  0  0  0  0  0  0  0  0  0  0
   -1.5164  -17.7588   25.7700 H   0  0  0  0  0  0  0  0  0  0  0  0
   -1.6252  -19.5323   29.3854 H   0  0  0  0  0  0  0  0  0  0  0  0
    0.7102  -18.5567   30.4910 H   0  0  0  0  0  0  0  0  0  0  0  0
    2.6938  -17.1703   29.7482 H   0  0  0  0  0  0  0  0  0  0  0  0
    7.9471  -11.0406   19.6326 H   0  0  0  0  0  0  0  0  0  0  0  0
   10.4287  -11.0148   19.0186 H   0  0  0  0  0  0  0  0  0  0  0  0
   11.4560  -13.5464   19.2888 H   0  0  0  0  0  0  0  0  0  0  0  0
  1  2  1  0
  2  3  1  0
  2  4  1  0
  4  5  1  0
  5  6  1  0
  6  7  1  0
  7  8  2  0
  7  9  1  0
  9 10  2  0
 10 11  1  0
 11 12  1  0
 11 13  2  0
 13 14  1  0
 14 15  1  0
 15 16  1  0
 16 17  2  0
 17 18  1  0
  4 19  1  0
 19 20  2  0
 20 21  1  0
 21 22  2  0
 22 23  1  0
 18  9  1  0
 23 19  1  0
 18 14  2  0
  1 24  1  0
  1 25  1  0
  1 26  1  0
  3 27  1  0
  3 28  1  0
  3 29  1  0
  4 30  1  0
  5 31  1  0
  5 32  1  0
  6 33  1  0
 10 34  1  0
 13 35  1  0
 15 36  1  0
 16 37  1  0
 20 38  1  0
 21 39  1  0
 22 40  1  0
M  END
>  <Energy>  (142) 
1438.0628774009795

>  <compound_id>  (142) 
4831

>  <target_id>  (142) 
1

>  <reference_id>  (142) 
76

>  <inspiration_ids>  (142) 
[94, 76]

>  <energy_score>  (142) 
1329.2933980059388

>  <distance_score>  (142) 
14.165028571577622

>  <path>  (142) 
/opt/xchem-fragalysis-2/maxwin/BulkDock/SCRATCH/511018/C4831-P76/C4831-P76.minimised.mol

>  <scratch_subdir>  (142) 
/opt/xchem-fragalysis-2/maxwin/BulkDock/SCRATCH/511018/C4831-P76

>  <fragmenstein_runtime>  (142) 
14.209091901779175

>  <fragmenstein_outcome>  (142) 
too moved

>  <fragmenstein_mode>  (142) 
expansion

>  <fragmenstein_error>  (142) 


$$$$
C4837-P94
     RDKit          3D

 39 41  0  0  0  0  0  0  0  0999 V2000
   -3.9014   -7.3114   21.6931 C   0  0  0  0  0  0  0  0  0  0  0  0
   -3.2620   -8.5629   22.3265 C   0  0  0  0  0  0  0  0  0  0  0  0
   -3.8159   -8.8164   23.8071 C   0  0  0  0  0  0  0  0  0  0  0  0
   -4.8611   -9.8840   24.0844 N   0  0  0  0  0  0  0  0  0  0  0  0
   -5.7870  -10.0545   25.2169 C   0  0  0  0  0  0  0  0  0  0  0  0
   -6.0009   -9.3466   26.1643 O   0  0  0  0  0  0  0  0  0  0  0  0
   -6.6210  -11.3863   25.3331 C   0  0  0  0  0  0  0  0  0  0  0  0
   -7.1423  -12.1227   24.2571 C   0  0  0  0  0  0  0  0  0  0  0  0
   -7.8936  -13.3289   24.4360 C   0  0  0  0  0  0  0  0  0  0  0  0
   -8.0973  -13.8051   25.7420 C   0  0  0  0  0  0  0  0  0  0  0  0
   -8.6953  -14.9326   26.2618 N   0  0  0  0  0  0  0  0  0  0  0  0
   -8.5660  -14.8945   27.6225 C   0  0  0  0  0  0  0  0  0  0  0  0
   -7.9334  -13.8091   28.0106 N   0  0  0  0  0  0  0  0  0  0  0  0
   -7.6262  -13.1153   26.8530 C   0  0  0  0  0  0  0  0  0  0  0  0
   -6.9147  -11.8970   26.6440 C   0  0  0  0  0  0  0  0  0  0  0  0
   -1.8033   -8.3109   22.0928 N   0  0  0  0  0  0  0  0  0  0  0  0
   -0.8988   -7.3389   22.6807 C   0  0  0  0  0  0  0  0  0  0  0  0
   -1.0730   -6.5472   23.5609 O   0  0  0  0  0  0  0  0  0  0  0  0
    0.4408   -7.2799   21.9701 C   0  0  0  0  0  0  0  0  0  0  0  0
    0.8111   -7.6058   20.6668 C   0  0  0  0  0  0  0  0  0  0  0  0
    2.1627   -7.2562   20.3285 C   0  0  0  0  0  0  0  0  0  0  0  0
    2.8182   -6.6683   21.3813 C   0  0  0  0  0  0  0  0  0  0  0  0
    1.8034   -6.5215   22.7524 S   0  0  0  0  0  0  0  0  0  0  0  0
   -3.6446   -6.4020   22.2475 H   0  0  0  0  0  0  0  0  0  0  0  0
   -4.9924   -7.4069   21.6916 H   0  0  0  0  0  0  0  0  0  0  0  0
   -3.5761   -7.1789   20.6549 H   0  0  0  0  0  0  0  0  0  0  0  0
   -3.5061   -9.4388   21.7157 H   0  0  0  0  0  0  0  0  0  0  0  0
   -2.9833   -9.0882   24.4575 H   0  0  0  0  0  0  0  0  0  0  0  0
   -4.2212   -7.8851   24.2195 H   0  0  0  0  0  0  0  0  0  0  0  0
   -4.8816  -10.7277   23.5052 H   0  0  0  0  0  0  0  0  0  0  0  0
   -6.9775  -11.7647   23.2420 H   0  0  0  0  0  0  0  0  0  0  0  0
   -8.2679  -13.8682   23.5711 H   0  0  0  0  0  0  0  0  0  0  0  0
   -9.1404  -15.6638   25.7288 H   0  0  0  0  0  0  0  0  0  0  0  0
   -8.9487  -15.6715   28.2698 H   0  0  0  0  0  0  0  0  0  0  0  0
   -6.5515  -11.3637   27.5199 H   0  0  0  0  0  0  0  0  0  0  0  0
   -1.3420   -8.7601   21.3078 H   0  0  0  0  0  0  0  0  0  0  0  0
    0.1343   -8.0489   19.9469 H   0  0  0  0  0  0  0  0  0  0  0  0
    2.6109   -7.4337   19.3582 H   0  0  0  0  0  0  0  0  0  0  0  0
    3.8356   -6.3043   21.4134 H   0  0  0  0  0  0  0  0  0  0  0  0
  1  2  1  0
  2  3  1  0
  3  4  1  0
  4  5  1  0
  5  6  2  0
  5  7  1  0
  7  8  2  0
  8  9  1  0
  9 10  2  0
 10 11  1  0
 11 12  1  0
 12 13  2  0
 13 14  1  0
 14 15  2  0
  2 16  1  0
 16 17  1  0
 17 18  2  0
 17 19  1  0
 19 20  2  0
 20 21  1  0
 21 22  2  0
 22 23  1  0
 15  7  1  0
 23 19  1  0
 14 10  1  0
  1 24  1  0
  1 25  1  0
  1 26  1  0
  2 27  1  0
  3 28  1  0
  3 29  1  0
  4 30  1  0
  8 31  1  0
  9 32  1  0
 11 33  1  0
 12 34  1  0
 15 35  1  0
 16 36  1  0
 20 37  1  0
 21 38  1  0
 22 39  1  0
M  END
>  <Energy>  (143) 
45.156035288493044

>  <compound_id>  (143) 
4837

>  <target_id>  (143) 
1

>  <reference_id>  (143) 
94

>  <inspiration_ids>  (143) 
[94, 76]

>  <energy_score>  (143) 
-0.9578921531751803

>  <distance_score>  (143) 
16.325540202311306

>  <path>  (143) 
/opt/xchem-fragalysis-2/maxwin/BulkDock/SCRATCH/511018/C4837-P94/C4837-P94.minimised.mol

>  <scratch_subdir>  (143) 
/opt/xchem-fragalysis-2/maxwin/BulkDock/SCRATCH/511018/C4837-P94

>  <fragmenstein_runtime>  (143) 
25.1506609916687

>  <fragmenstein_outcome>  (143) 
too moved

>  <fragmenstein_mode>  (143) 
expansion

>  <fragmenstein_error>  (143) 


$$$$
C4837-P76
     RDKit          3D

 39 41  0  0  0  0  0  0  0  0999 V2000
   11.8766  -10.3998   21.9668 C   0  0  0  0  0  0  0  0  0  0  0  0
   10.9646  -11.5843   21.5769 C   0  0  0  0  0  0  0  0  0  0  0  0
    9.6358  -11.4377   22.3352 C   0  0  0  0  0  0  0  0  0  0  0  0
    8.6990  -12.5394   22.2992 N   0  0  0  0  0  0  0  0  0  0  0  0
    8.3786  -13.4642   21.2587 C   0  0  0  0  0  0  0  0  0  0  0  0
    8.8562  -13.6177   20.1784 O   0  0  0  0  0  0  0  0  0  0  0  0
    7.1922  -14.2711   21.6010 C   0  0  0  0  0  0  0  0  0  0  0  0
    7.0440  -15.0904   23.2820 C   0  0  0  0  0  0  0  0  0  0  0  0
    5.3212  -15.2937   23.9444 C   0  0  0  0  0  0  0  0  0  0  0  0
    3.6882  -14.8914   23.1134 C   0  0  0  0  0  0  0  0  0  0  0  0
    2.7994  -14.0004   23.6682 N   0  0  0  0  0  0  0  0  0  0  0  0
    2.9355  -12.6536   23.5384 C   0  0  0  0  0  0  0  0  0  0  0  0
    3.3827  -12.3374   22.3466 N   0  0  0  0  0  0  0  0  0  0  0  0
    3.7482  -13.6557   21.5946 C   0  0  0  0  0  0  0  0  0  0  0  0
    5.5669  -13.6139   20.9854 C   0  0  0  0  0  0  0  0  0  0  0  0
   10.7709  -11.6199   20.1413 N   0  0  0  0  0  0  0  0  0  0  0  0
   11.6787  -11.9071   19.0823 C   0  0  0  0  0  0  0  0  0  0  0  0
   12.8544  -12.1161   19.0998 O   0  0  0  0  0  0  0  0  0  0  0  0
   11.0229  -11.8262   17.7549 C   0  0  0  0  0  0  0  0  0  0  0  0
   11.6700  -11.7248   16.5303 C   0  0  0  0  0  0  0  0  0  0  0  0
   10.7750  -11.5382   15.4420 C   0  0  0  0  0  0  0  0  0  0  0  0
    9.4666  -11.5060   15.8579 C   0  0  0  0  0  0  0  0  0  0  0  0
    9.3240  -11.7237   17.5431 S   0  0  0  0  0  0  0  0  0  0  0  0
   12.1613  -10.4843   23.0219 H   0  0  0  0  0  0  0  0  0  0  0  0
   11.3572   -9.4437   21.8546 H   0  0  0  0  0  0  0  0  0  0  0  0
   12.8003  -10.3931   21.3806 H   0  0  0  0  0  0  0  0  0  0  0  0
   11.4635  -12.5201   21.8536 H   0  0  0  0  0  0  0  0  0  0  0  0
    9.8349  -11.2608   23.3985 H   0  0  0  0  0  0  0  0  0  0  0  0
    9.0865  -10.5659   21.9593 H   0  0  0  0  0  0  0  0  0  0  0  0
    8.0272  -12.6415   23.0506 H   0  0  0  0  0  0  0  0  0  0  0  0
    7.9187  -15.2570   23.9020 H   0  0  0  0  0  0  0  0  0  0  0  0
    5.2031  -15.5980   24.9898 H   0  0  0  0  0  0  0  0  0  0  0  0
    1.8775  -14.2976   23.4632 H   0  0  0  0  0  0  0  0  0  0  0  0
    2.2818  -12.0320   24.1047 H   0  0  0  0  0  0  0  0  0  0  0  0
    5.6531  -12.8050   20.2458 H   0  0  0  0  0  0  0  0  0  0  0  0
    9.8256  -11.5821   19.7650 H   0  0  0  0  0  0  0  0  0  0  0  0
   12.7509  -11.7547   16.4306 H   0  0  0  0  0  0  0  0  0  0  0  0
   11.0735  -11.4427   14.4066 H   0  0  0  0  0  0  0  0  0  0  0  0
    8.5834  -11.3848   15.2453 H   0  0  0  0  0  0  0  0  0  0  0  0
  1  2  1  0
  2  3  1  0
  3  4  1  0
  4  5  1  0
  5  6  2  0
  5  7  1  0
  7  8  2  0
  8  9  1  0
  9 10  2  0
 10 11  1  0
 11 12  1  0
 12 13  2  0
 13 14  1  0
 14 15  2  0
  2 16  1  0
 16 17  1  0
 17 18  2  0
 17 19  1  0
 19 20  2  0
 20 21  1  0
 21 22  2  0
 22 23  1  0
 15  7  1  0
 23 19  1  0
 14 10  1  0
  1 24  1  0
  1 25  1  0
  1 26  1  0
  2 27  1  0
  3 28  1  0
  3 29  1  0
  4 30  1  0
  8 31  1  0
  9 32  1  0
 11 33  1  0
 12 34  1  0
 15 35  1  0
 16 36  1  0
 20 37  1  0
 21 38  1  0
 22 39  1  0
M  END
>  <Energy>  (144) 
497.99129360488291

>  <compound_id>  (144) 
4837

>  <target_id>  (144) 
1

>  <reference_id>  (144) 
76

>  <inspiration_ids>  (144) 
[94, 76]

>  <energy_score>  (144) 
451.8773661632179

>  <distance_score>  (144) 
16.78944334190906

>  <path>  (144) 
/opt/xchem-fragalysis-2/maxwin/BulkDock/SCRATCH/511018/C4837-P76/C4837-P76.minimised.mol

>  <scratch_subdir>  (144) 
/opt/xchem-fragalysis-2/maxwin/BulkDock/SCRATCH/511018/C4837-P76

>  <fragmenstein_runtime>  (144) 
16.966144323349

>  <fragmenstein_outcome>  (144) 
too moved

>  <fragmenstein_mode>  (144) 
expansion

>  <fragmenstein_error>  (144) 


$$$$
C4838-P94
     RDKit          3D

 42 44  0  0  0  0  0  0  0  0999 V2000
   -0.2523  -13.4519   22.7090 C   0  0  0  0  0  0  0  0  0  0  0  0
   -1.2114  -11.8596   21.6889 C   0  0  0  0  0  0  0  0  0  0  0  0
   -1.0227  -10.5385   21.8512 N   0  0  0  0  0  0  0  0  0  0  0  0
   -1.6958   -9.9225   20.8328 C   0  0  0  0  0  0  0  0  0  0  0  0
   -1.5932   -8.5797   20.4505 C   0  0  0  0  0  0  0  0  0  0  0  0
   -1.8683   -8.2982   19.1072 C   0  0  0  0  0  0  0  0  0  0  0  0
   -1.3685   -7.0356   18.4664 C   0  0  0  0  0  0  0  0  0  0  0  0
   -2.1682   -6.1614   18.3017 O   0  0  0  0  0  0  0  0  0  0  0  0
    0.0114   -7.1358   18.0656 N   0  0  0  0  0  0  0  0  0  0  0  0
    0.8413   -6.2467   17.2487 C   0  0  0  0  0  0  0  0  0  0  0  0
    1.7217   -5.1800   17.9602 C   0  0  0  0  0  0  0  0  0  0  0  0
    2.9459   -5.7817   18.6642 C   0  0  0  0  0  0  0  0  0  0  0  0
    2.2556   -4.1687   17.0381 N   0  0  0  0  0  0  0  0  0  0  0  0
    2.9240   -4.3046   15.7789 C   0  0  0  0  0  0  0  0  0  0  0  0
    3.1483   -5.2740   15.1165 O   0  0  0  0  0  0  0  0  0  0  0  0
    3.4997   -3.0182   15.3035 C   0  0  0  0  0  0  0  0  0  0  0  0
    4.2751   -2.8397   14.1643 C   0  0  0  0  0  0  0  0  0  0  0  0
    4.8867   -1.5562   14.0863 C   0  0  0  0  0  0  0  0  0  0  0  0
    4.4950   -0.7500   15.1286 C   0  0  0  0  0  0  0  0  0  0  0  0
    3.3889   -1.5395   16.1738 S   0  0  0  0  0  0  0  0  0  0  0  0
   -2.4374   -9.2760   18.2627 C   0  0  0  0  0  0  0  0  0  0  0  0
   -2.6828  -10.5880   18.6936 C   0  0  0  0  0  0  0  0  0  0  0  0
   -2.2641  -10.8606   19.9815 C   0  0  0  0  0  0  0  0  0  0  0  0
   -2.0236  -12.0412   20.5818 N   0  0  0  0  0  0  0  0  0  0  0  0
   -0.8620  -14.2109   23.3048 H   0  0  0  0  0  0  0  0  0  0  0  0
    0.3444  -13.8584   23.5873 H   0  0  0  0  0  0  0  0  0  0  0  0
   -0.1569  -14.3220   22.1140 H   0  0  0  0  0  0  0  0  0  0  0  0
   -1.0709   -7.8737   21.0840 H   0  0  0  0  0  0  0  0  0  0  0  0
    0.4093   -7.9948   18.4522 H   0  0  0  0  0  0  0  0  0  0  0  0
    1.4664   -6.8961   16.6259 H   0  0  0  0  0  0  0  0  0  0  0  0
    0.1485   -5.7254   16.5769 H   0  0  0  0  0  0  0  0  0  0  0  0
    1.1124   -4.6410   18.6943 H   0  0  0  0  0  0  0  0  0  0  0  0
    3.5264   -5.0045   19.1731 H   0  0  0  0  0  0  0  0  0  0  0  0
    3.6110   -6.2855   17.9541 H   0  0  0  0  0  0  0  0  0  0  0  0
    2.6342   -6.5153   19.4149 H   0  0  0  0  0  0  0  0  0  0  0  0
    2.1752   -3.1834   17.2644 H   0  0  0  0  0  0  0  0  0  0  0  0
    4.4286   -3.6289   13.4387 H   0  0  0  0  0  0  0  0  0  0  0  0
    5.5583   -1.2391   13.2965 H   0  0  0  0  0  0  0  0  0  0  0  0
    4.7776    0.2776   15.3123 H   0  0  0  0  0  0  0  0  0  0  0  0
   -2.6357   -9.0167   17.2241 H   0  0  0  0  0  0  0  0  0  0  0  0
   -3.0430  -11.3493   18.0142 H   0  0  0  0  0  0  0  0  0  0  0  0
   -2.1301  -12.9342   20.1833 H   0  0  0  0  0  0  0  0  0  0  0  0
  1  2  1  0
  2  3  2  0
  3  4  1  0
  4  5  2  0
  5  6  1  0
  6  7  1  0
  7  8  2  0
  7  9  1  0
  9 10  1  0
 10 11  1  0
 11 12  1  0
 11 13  1  0
 13 14  1  0
 14 15  2  0
 14 16  1  0
 16 17  2  0
 17 18  1  0
 18 19  2  0
 19 20  1  0
  6 21  2  0
 21 22  1  0
 22 23  2  0
 23 24  1  0
 24  2  1  0
 23  4  1  0
 20 16  1  0
  1 25  1  0
  1 26  1  0
  1 27  1  0
  5 28  1  0
  9 29  1  0
 10 30  1  0
 10 31  1  0
 11 32  1  0
 12 33  1  0
 12 34  1  0
 12 35  1  0
 13 36  1  0
 17 37  1  0
 18 38  1  0
 19 39  1  0
 21 40  1  0
 22 41  1  0
 24 42  1  0
M  END
>  <Energy>  (145) 
204.33935171458961

>  <compound_id>  (145) 
4838

>  <target_id>  (145) 
1

>  <reference_id>  (145) 
94

>  <inspiration_ids>  (145) 
[94, 76]

>  <energy_score>  (145) 
172.40825474576263

>  <distance_score>  (145) 
16.37391683605753

>  <path>  (145) 
/opt/xchem-fragalysis-2/maxwin/BulkDock/SCRATCH/511018/C4838-P94/C4838-P94.minimised.mol

>  <scratch_subdir>  (145) 
/opt/xchem-fragalysis-2/maxwin/BulkDock/SCRATCH/511018/C4838-P94

>  <fragmenstein_runtime>  (145) 
23.075467586517334

>  <fragmenstein_outcome>  (145) 
too moved

>  <fragmenstein_mode>  (145) 
expansion

>  <fragmenstein_error>  (145) 


$$$$
C4838-P76
     RDKit          3D

 42 44  0  0  0  0  0  0  0  0999 V2000
   -3.6343  -22.3078   26.4921 C   0  0  0  0  0  0  0  0  0  0  0  0
   -3.0825  -21.8995   25.1803 C   0  0  0  0  0  0  0  0  0  0  0  0
   -1.8856  -21.3893   24.9528 N   0  0  0  0  0  0  0  0  0  0  0  0
   -1.8103  -21.1586   23.5914 C   0  0  0  0  0  0  0  0  0  0  0  0
   -0.7660  -20.5889   22.7957 C   0  0  0  0  0  0  0  0  0  0  0  0
   -0.9581  -20.3243   21.4162 C   0  0  0  0  0  0  0  0  0  0  0  0
    0.1861  -19.8203   20.4824 C   0  0  0  0  0  0  0  0  0  0  0  0
    0.8840  -20.6922   20.0485 O   0  0  0  0  0  0  0  0  0  0  0  0
    0.1737  -18.3935   20.2096 N   0  0  0  0  0  0  0  0  0  0  0  0
    0.9635  -17.5648   19.2228 C   0  0  0  0  0  0  0  0  0  0  0  0
    2.5497  -17.5939   19.1198 C   0  0  0  0  0  0  0  0  0  0  0  0
    2.9833  -18.1092   17.7369 C   0  0  0  0  0  0  0  0  0  0  0  0
    3.3519  -16.3316   19.2053 N   0  0  0  0  0  0  0  0  0  0  0  0
    3.3281  -15.1337   18.3904 C   0  0  0  0  0  0  0  0  0  0  0  0
    2.6029  -14.8169   17.4912 O   0  0  0  0  0  0  0  0  0  0  0  0
    4.4795  -14.2039   18.6869 C   0  0  0  0  0  0  0  0  0  0  0  0
    5.2356  -13.9584   19.8250 C   0  0  0  0  0  0  0  0  0  0  0  0
    6.2888  -12.9980   19.6284 C   0  0  0  0  0  0  0  0  0  0  0  0
    6.3206  -12.5145   18.3429 C   0  0  0  0  0  0  0  0  0  0  0  0
    5.0762  -13.1936   17.3897 S   0  0  0  0  0  0  0  0  0  0  0  0
   -2.1930  -20.7134   20.8602 C   0  0  0  0  0  0  0  0  0  0  0  0
   -3.2351  -21.3166   21.6206 C   0  0  0  0  0  0  0  0  0  0  0  0
   -3.0120  -21.5120   22.9872 C   0  0  0  0  0  0  0  0  0  0  0  0
   -3.7873  -22.0209   24.0064 N   0  0  0  0  0  0  0  0  0  0  0  0
   -3.3753  -21.5703   27.2580 H   0  0  0  0  0  0  0  0  0  0  0  0
   -4.7249  -22.3933   26.4617 H   0  0  0  0  0  0  0  0  0  0  0  0
   -3.2158  -23.2731   26.7910 H   0  0  0  0  0  0  0  0  0  0  0  0
    0.1861  -20.3598   23.2642 H   0  0  0  0  0  0  0  0  0  0  0  0
   -0.6119  -17.9692   20.6953 H   0  0  0  0  0  0  0  0  0  0  0  0
    0.5346  -17.8297   18.2495 H   0  0  0  0  0  0  0  0  0  0  0  0
    0.6524  -16.5450   19.4359 H   0  0  0  0  0  0  0  0  0  0  0  0
    2.9452  -18.2635   19.8907 H   0  0  0  0  0  0  0  0  0  0  0  0
    2.5831  -19.1156   17.5704 H   0  0  0  0  0  0  0  0  0  0  0  0
    2.6180  -17.4710   16.9250 H   0  0  0  0  0  0  0  0  0  0  0  0
    4.0747  -18.1735   17.6541 H   0  0  0  0  0  0  0  0  0  0  0  0
    4.1550  -16.2975   19.8177 H   0  0  0  0  0  0  0  0  0  0  0  0
    5.0388  -14.4345   20.7783 H   0  0  0  0  0  0  0  0  0  0  0  0
    6.9795  -12.6855   20.4019 H   0  0  0  0  0  0  0  0  0  0  0  0
    7.0029  -11.7923   17.9155 H   0  0  0  0  0  0  0  0  0  0  0  0
   -2.3469  -20.5778   19.7888 H   0  0  0  0  0  0  0  0  0  0  0  0
   -4.1677  -21.6051   21.1449 H   0  0  0  0  0  0  0  0  0  0  0  0
   -4.7220  -22.3929   23.9119 H   0  0  0  0  0  0  0  0  0  0  0  0
  1  2  1  0
  2  3  2  0
  3  4  1  0
  4  5  2  0
  5  6  1  0
  6  7  1  0
  7  8  2  0
  7  9  1  0
  9 10  1  0
 10 11  1  0
 11 12  1  0
 11 13  1  0
 13 14  1  0
 14 15  2  0
 14 16  1  0
 16 17  2  0
 17 18  1  0
 18 19  2  0
 19 20  1  0
  6 21  2  0
 21 22  1  0
 22 23  2  0
 23 24  1  0
 24  2  1  0
 23  4  1  0
 20 16  1  0
  1 25  1  0
  1 26  1  0
  1 27  1  0
  5 28  1  0
  9 29  1  0
 10 30  1  0
 10 31  1  0
 11 32  1  0
 12 33  1  0
 12 34  1  0
 12 35  1  0
 13 36  1  0
 17 37  1  0
 18 38  1  0
 19 39  1  0
 21 40  1  0
 22 41  1  0
 24 42  1  0
M  END
>  <Energy>  (146) 
41.629322380813022

>  <compound_id>  (146) 
4838

>  <target_id>  (146) 
1

>  <reference_id>  (146) 
76

>  <inspiration_ids>  (146) 
[94, 76]

>  <energy_score>  (146) 
9.698225411987096

>  <distance_score>  (146) 
17.036549680504912

>  <path>  (146) 
/opt/xchem-fragalysis-2/maxwin/BulkDock/SCRATCH/511018/C4838-P76/C4838-P76.minimised.mol

>  <scratch_subdir>  (146) 
/opt/xchem-fragalysis-2/maxwin/BulkDock/SCRATCH/511018/C4838-P76

>  <fragmenstein_runtime>  (146) 
18.123947858810425

>  <fragmenstein_outcome>  (146) 
too moved

>  <fragmenstein_mode>  (146) 
expansion

>  <fragmenstein_error>  (146) 


$$$$
C4839-P94
     RDKit          3D

 42 44  0  0  0  0  0  0  0  0999 V2000
    6.0224  -15.6754   28.7550 C   0  0  0  0  0  0  0  0  0  0  0  0
    4.8772  -15.0729   27.9526 C   0  0  0  0  0  0  0  0  0  0  0  0
    3.6219  -14.7650   28.9088 C   0  0  0  0  0  0  0  0  0  0  0  0
    2.3612  -15.6147   28.9675 N   0  0  0  0  0  0  0  0  0  0  0  0
    2.0798  -16.8689   29.6712 C   0  0  0  0  0  0  0  0  0  0  0  0
    2.8004  -17.5822   30.3133 O   0  0  0  0  0  0  0  0  0  0  0  0
    0.5596  -17.3560   29.7143 C   0  0  0  0  0  0  0  0  0  0  0  0
   -0.5506  -16.4904   29.7860 C   0  0  0  0  0  0  0  0  0  0  0  0
   -1.8909  -16.9377   30.0347 C   0  0  0  0  0  0  0  0  0  0  0  0
   -2.1116  -18.3067   30.2546 C   0  0  0  0  0  0  0  0  0  0  0  0
   -1.0558  -19.2165   30.1727 C   0  0  0  0  0  0  0  0  0  0  0  0
    0.2660  -18.7391   29.9013 C   0  0  0  0  0  0  0  0  0  0  0  0
   -1.5075  -20.4966   30.4241 N   0  0  0  0  0  0  0  0  0  0  0  0
   -2.7844  -20.3726   30.7122 C   0  0  0  0  0  0  0  0  0  0  0  0
   -3.2057  -19.0737   30.6164 N   0  0  0  0  0  0  0  0  0  0  0  0
   -4.5478  -18.6321   30.9428 C   0  0  0  0  0  0  0  0  0  0  0  0
    5.5696  -13.9366   27.2482 N   0  0  0  0  0  0  0  0  0  0  0  0
    6.6549  -13.9370   26.2763 C   0  0  0  0  0  0  0  0  0  0  0  0
    7.2148  -14.8469   25.7351 O   0  0  0  0  0  0  0  0  0  0  0  0
    7.1544  -12.5702   25.8533 C   0  0  0  0  0  0  0  0  0  0  0  0
    7.9725  -12.3136   24.7436 C   0  0  0  0  0  0  0  0  0  0  0  0
    8.2594  -10.9331   24.5200 C   0  0  0  0  0  0  0  0  0  0  0  0
    7.7039  -10.1533   25.5040 C   0  0  0  0  0  0  0  0  0  0  0  0
    6.8650  -11.0942   26.6740 S   0  0  0  0  0  0  0  0  0  0  0  0
    5.6710  -16.5408   29.3277 H   0  0  0  0  0  0  0  0  0  0  0  0
    6.4427  -14.9532   29.4647 H   0  0  0  0  0  0  0  0  0  0  0  0
    6.8377  -16.0284   28.1147 H   0  0  0  0  0  0  0  0  0  0  0  0
    4.5754  -15.7801   27.1741 H   0  0  0  0  0  0  0  0  0  0  0  0
    3.9776  -14.7209   29.9451 H   0  0  0  0  0  0  0  0  0  0  0  0
    3.2452  -13.7697   28.6685 H   0  0  0  0  0  0  0  0  0  0  0  0
    1.4976  -15.2415   28.5993 H   0  0  0  0  0  0  0  0  0  0  0  0
   -0.3945  -15.4154   29.7153 H   0  0  0  0  0  0  0  0  0  0  0  0
   -2.6998  -16.2174   30.1155 H   0  0  0  0  0  0  0  0  0  0  0  0
    1.0775  -19.4636   29.9029 H   0  0  0  0  0  0  0  0  0  0  0  0
   -3.4381  -21.1787   31.0097 H   0  0  0  0  0  0  0  0  0  0  0  0
   -4.4859  -17.6539   31.4260 H   0  0  0  0  0  0  0  0  0  0  0  0
   -5.1144  -18.5612   30.0125 H   0  0  0  0  0  0  0  0  0  0  0  0
   -4.9984  -19.3485   31.6323 H   0  0  0  0  0  0  0  0  0  0  0  0
    5.2889  -12.9820   27.4286 H   0  0  0  0  0  0  0  0  0  0  0  0
    8.3197  -13.1129   24.0968 H   0  0  0  0  0  0  0  0  0  0  0  0
    8.8480  -10.5493   23.6960 H   0  0  0  0  0  0  0  0  0  0  0  0
    7.7609   -9.0793   25.6137 H   0  0  0  0  0  0  0  0  0  0  0  0
  1  2  1  0
  2  3  1  0
  3  4  1  0
  4  5  1  0
  5  6  2  0
  5  7  1  0
  7  8  2  0
  8  9  1  0
  9 10  2  0
 10 11  1  0
 11 12  2  0
 11 13  1  0
 13 14  2  0
 14 15  1  0
 15 16  1  0
  2 17  1  0
 17 18  1  0
 18 19  2  0
 18 20  1  0
 20 21  2  0
 21 22  1  0
 22 23  2  0
 23 24  1  0
 12  7  1  0
 24 20  1  0
 15 10  1  0
  1 25  1  0
  1 26  1  0
  1 27  1  0
  2 28  1  0
  3 29  1  0
  3 30  1  0
  4 31  1  0
  8 32  1  0
  9 33  1  0
 12 34  1  0
 14 35  1  0
 16 36  1  0
 16 37  1  0
 16 38  1  0
 17 39  1  0
 21 40  1  0
 22 41  1  0
 23 42  1  0
M  END
>  <Energy>  (147) 
49.644720664327771

>  <compound_id>  (147) 
4839

>  <target_id>  (147) 
1

>  <reference_id>  (147) 
94

>  <inspiration_ids>  (147) 
[94, 76]

>  <energy_score>  (147) 
8.057231294146277

>  <distance_score>  (147) 
16.49166310539115

>  <path>  (147) 
/opt/xchem-fragalysis-2/maxwin/BulkDock/SCRATCH/511018/C4839-P94/C4839-P94.minimised.mol

>  <scratch_subdir>  (147) 
/opt/xchem-fragalysis-2/maxwin/BulkDock/SCRATCH/511018/C4839-P94

>  <fragmenstein_runtime>  (147) 
29.38188123703003

>  <fragmenstein_outcome>  (147) 
too moved

>  <fragmenstein_mode>  (147) 
expansion

>  <fragmenstein_error>  (147) 


$$$$
C4839-P76
     RDKit          3D

 42 44  0  0  0  0  0  0  0  0999 V2000
   -4.2866   -7.4926   21.7522 C   0  0  0  0  0  0  0  0  0  0  0  0
   -3.5682   -8.6425   22.4777 C   0  0  0  0  0  0  0  0  0  0  0  0
   -4.1359   -8.8683   23.9585 C   0  0  0  0  0  0  0  0  0  0  0  0
   -5.1099   -9.9769   24.3428 N   0  0  0  0  0  0  0  0  0  0  0  0
   -6.1259  -10.0405   25.4100 C   0  0  0  0  0  0  0  0  0  0  0  0
   -6.4925   -9.2019   26.1894 O   0  0  0  0  0  0  0  0  0  0  0  0
   -6.8241  -11.4191   25.7351 C   0  0  0  0  0  0  0  0  0  0  0  0
   -6.8933  -11.7435   27.1222 C   0  0  0  0  0  0  0  0  0  0  0  0
   -7.5175  -12.8973   27.6677 C   0  0  0  0  0  0  0  0  0  0  0  0
   -8.1151  -13.7765   26.7693 C   0  0  0  0  0  0  0  0  0  0  0  0
   -8.1169  -13.5144   25.3951 C   0  0  0  0  0  0  0  0  0  0  0  0
   -7.4744  -12.3273   24.8724 C   0  0  0  0  0  0  0  0  0  0  0  0
   -8.7633  -14.5453   24.7365 N   0  0  0  0  0  0  0  0  0  0  0  0
   -9.1311  -15.4025   25.6667 C   0  0  0  0  0  0  0  0  0  0  0  0
   -8.7712  -14.9814   26.9133 N   0  0  0  0  0  0  0  0  0  0  0  0
   -9.0369  -15.6950   28.1429 C   0  0  0  0  0  0  0  0  0  0  0  0
   -2.1274   -8.2562   22.3106 N   0  0  0  0  0  0  0  0  0  0  0  0
   -1.3498   -7.2006   22.9254 C   0  0  0  0  0  0  0  0  0  0  0  0
   -1.6399   -6.4191   23.7845 O   0  0  0  0  0  0  0  0  0  0  0  0
    0.0095   -7.0098   22.2956 C   0  0  0  0  0  0  0  0  0  0  0  0
    1.0570   -6.2166   22.7700 C   0  0  0  0  0  0  0  0  0  0  0  0
    2.1969   -6.1591   21.9036 C   0  0  0  0  0  0  0  0  0  0  0  0
    1.9952   -6.8991   20.7653 C   0  0  0  0  0  0  0  0  0  0  0  0
    0.4433   -7.6263   20.7506 S   0  0  0  0  0  0  0  0  0  0  0  0
   -3.9271   -7.3837   20.7226 H   0  0  0  0  0  0  0  0  0  0  0  0
   -5.3632   -7.6888   21.7116 H   0  0  0  0  0  0  0  0  0  0  0  0
   -4.1391   -6.5355   22.2647 H   0  0  0  0  0  0  0  0  0  0  0  0
   -3.6973   -9.5640   21.9034 H   0  0  0  0  0  0  0  0  0  0  0  0
   -4.5862   -7.9374   24.3226 H   0  0  0  0  0  0  0  0  0  0  0  0
   -3.2801   -9.0561   24.6139 H   0  0  0  0  0  0  0  0  0  0  0  0
   -5.0000  -10.9050   23.9301 H   0  0  0  0  0  0  0  0  0  0  0  0
   -6.4352  -11.0495   27.8321 H   0  0  0  0  0  0  0  0  0  0  0  0
   -7.5154  -13.0720   28.7386 H   0  0  0  0  0  0  0  0  0  0  0  0
   -7.5033  -12.1432   23.8044 H   0  0  0  0  0  0  0  0  0  0  0  0
   -9.6572  -16.3285   25.4855 H   0  0  0  0  0  0  0  0  0  0  0  0
   -9.6510  -16.5731   27.9290 H   0  0  0  0  0  0  0  0  0  0  0  0
   -8.0797  -15.9998   28.5726 H   0  0  0  0  0  0  0  0  0  0  0  0
   -9.5705  -15.0222   28.8187 H   0  0  0  0  0  0  0  0  0  0  0  0
   -1.5849   -8.6697   21.5519 H   0  0  0  0  0  0  0  0  0  0  0  0
    0.9890   -5.6892   23.7146 H   0  0  0  0  0  0  0  0  0  0  0  0
    3.1024   -5.6028   22.1095 H   0  0  0  0  0  0  0  0  0  0  0  0
    2.6700   -7.0491   19.9350 H   0  0  0  0  0  0  0  0  0  0  0  0
  1  2  1  0
  2  3  1  0
  3  4  1  0
  4  5  1  0
  5  6  2  0
  5  7  1  0
  7  8  2  0
  8  9  1  0
  9 10  2  0
 10 11  1  0
 11 12  2  0
 11 13  1  0
 13 14  2  0
 14 15  1  0
 15 16  1  0
  2 17  1  0
 17 18  1  0
 18 19  2  0
 18 20  1  0
 20 21  2  0
 21 22  1  0
 22 23  2  0
 23 24  1  0
 12  7  1  0
 24 20  1  0
 15 10  1  0
  1 25  1  0
  1 26  1  0
  1 27  1  0
  2 28  1  0
  3 29  1  0
  3 30  1  0
  4 31  1  0
  8 32  1  0
  9 33  1  0
 12 34  1  0
 14 35  1  0
 16 36  1  0
 16 37  1  0
 16 38  1  0
 17 39  1  0
 21 40  1  0
 22 41  1  0
 23 42  1  0
M  END
>  <Energy>  (148) 
47.470379616470872

>  <compound_id>  (148) 
4839

>  <target_id>  (148) 
1

>  <reference_id>  (148) 
76

>  <inspiration_ids>  (148) 
[94, 76]

>  <energy_score>  (148) 
5.882890246289946

>  <distance_score>  (148) 
16.4676739138174

>  <path>  (148) 
/opt/xchem-fragalysis-2/maxwin/BulkDock/SCRATCH/511018/C4839-P76/C4839-P76.minimised.mol

>  <scratch_subdir>  (148) 
/opt/xchem-fragalysis-2/maxwin/BulkDock/SCRATCH/511018/C4839-P76

>  <fragmenstein_runtime>  (148) 
18.20516085624695

>  <fragmenstein_outcome>  (148) 
too moved

>  <fragmenstein_mode>  (148) 
expansion

>  <fragmenstein_error>  (148) 


$$$$
C4841-P94
     RDKit          3D

 37 40  0  0  0  0  0  0  0  0999 V2000
    0.2136   -7.1498   19.3363 O   0  0  0  0  0  0  0  0  0  0  0  0
    1.2394   -7.7366   19.0122 C   0  0  0  0  0  0  0  0  0  0  0  0
    2.6170   -6.5565   17.8662 S   0  0  0  0  0  0  0  0  0  0  0  0
    4.1771   -7.7178   17.7701 C   0  0  0  0  0  0  0  0  0  0  0  0
    5.7652   -7.4087   18.0941 C   0  0  0  0  0  0  0  0  0  0  0  0
    7.3096   -6.3873   17.8919 C   0  0  0  0  0  0  0  0  0  0  0  0
    7.5813   -6.0661   16.0792 C   0  0  0  0  0  0  0  0  0  0  0  0
    9.3036   -7.2266   15.5860 C   0  0  0  0  0  0  0  0  0  0  0  0
   10.7136   -6.4535   16.6771 C   0  0  0  0  0  0  0  0  0  0  0  0
    9.6445   -6.1109   18.9245 S   0  0  0  0  0  0  0  0  0  0  0  0
    2.8322   -9.0792   18.1786 C   0  0  0  0  0  0  0  0  0  0  0  0
    2.6471   -9.8003   17.1810 O   0  0  0  0  0  0  0  0  0  0  0  0
    1.6647   -9.0510   19.4633 N   0  0  0  0  0  0  0  0  0  0  0  0
    0.7679  -10.0214   21.0631 C   0  0  0  0  0  0  0  0  0  0  0  0
    0.5077  -11.6309   22.4914 C   0  0  0  0  0  0  0  0  0  0  0  0
   -0.1364  -13.6602   22.9765 C   0  0  0  0  0  0  0  0  0  0  0  0
   -0.7062  -14.8892   22.2415 N   0  0  0  0  0  0  0  0  0  0  0  0
   -1.8346  -15.7082   22.7293 C   0  0  0  0  0  0  0  0  0  0  0  0
   -2.6816  -16.6638   22.1320 C   0  0  0  0  0  0  0  0  0  0  0  0
   -3.6969  -17.2684   22.9054 C   0  0  0  0  0  0  0  0  0  0  0  0
   -3.8890  -16.9092   24.2397 C   0  0  0  0  0  0  0  0  0  0  0  0
   -3.0553  -15.9574   24.8419 C   0  0  0  0  0  0  0  0  0  0  0  0
   -1.9753  -15.4430   24.0651 C   0  0  0  0  0  0  0  0  0  0  0  0
   -0.8956  -14.3652   24.3167 N   0  0  0  0  0  0  0  0  0  0  0  0
    6.1751   -8.3267   18.4858 H   0  0  0  0  0  0  0  0  0  0  0  0
    6.5900   -6.2943   15.6284 H   0  0  0  0  0  0  0  0  0  0  0  0
    9.5808   -7.7118   14.7534 H   0  0  0  0  0  0  0  0  0  0  0  0
   11.7711   -6.2956   16.3662 H   0  0  0  0  0  0  0  0  0  0  0  0
   -0.3107   -9.7745   20.9066 H   0  0  0  0  0  0  0  0  0  0  0  0
    0.9188   -9.1359   21.6991 H   0  0  0  0  0  0  0  0  0  0  0  0
    1.4120  -11.7080   23.1107 H   0  0  0  0  0  0  0  0  0  0  0  0
   -0.3414  -10.9824   22.5894 H   0  0  0  0  0  0  0  0  0  0  0  0
   -2.5466  -16.9219   21.0873 H   0  0  0  0  0  0  0  0  0  0  0  0
   -4.3462  -18.0081   22.4431 H   0  0  0  0  0  0  0  0  0  0  0  0
   -4.6955  -17.3587   24.8133 H   0  0  0  0  0  0  0  0  0  0  0  0
   -3.2166  -15.6406   25.8676 H   0  0  0  0  0  0  0  0  0  0  0  0
   -0.9985  -13.7056   25.0618 H   0  0  0  0  0  0  0  0  0  0  0  0
  1  2  2  0
  2  3  1  0
  3  4  1  0
  4  5  2  3
  5  6  1  0
  6  7  2  0
  7  8  1  0
  8  9  2  0
  9 10  1  0
  4 11  1  0
 11 12  2  0
 11 13  1  0
 13 14  1  0
 14 15  1  0
 15 16  1  0
 16 17  2  0
 17 18  1  0
 18 19  2  0
 19 20  1  0
 20 21  2  0
 21 22  1  0
 22 23  2  0
 23 24  1  0
 13  2  1  0
 24 16  1  0
 10  6  1  0
 23 18  1  0
  5 25  1  0
  7 26  1  0
  8 27  1  0
  9 28  1  0
 14 29  1  0
 14 30  1  0
 15 31  1  0
 15 32  1  0
 19 33  1  0
 20 34  1  0
 21 35  1  0
 22 36  1  0
 24 37  1  0
M  END
>  <Energy>  (149) 
1571.1985844443775

>  <compound_id>  (149) 
4841

>  <target_id>  (149) 
1

>  <reference_id>  (149) 
94

>  <inspiration_ids>  (149) 
[94, 76]

>  <energy_score>  (149) 
1553.8746525439556

>  <distance_score>  (149) 
13.58458003695967

>  <path>  (149) 
/opt/xchem-fragalysis-2/maxwin/BulkDock/SCRATCH/511018/C4841-P94/C4841-P94.minimised.mol

>  <scratch_subdir>  (149) 
/opt/xchem-fragalysis-2/maxwin/BulkDock/SCRATCH/511018/C4841-P94

>  <fragmenstein_runtime>  (149) 
19.071319103240967

>  <fragmenstein_outcome>  (149) 
too moved

>  <fragmenstein_mode>  (149) 
expansion

>  <fragmenstein_error>  (149) 


$$$$
C4841-P76
     RDKit          3D

 37 40  0  0  0  0  0  0  0  0999 V2000
   -1.4679   -8.4293   17.8496 O   0  0  0  0  0  0  0  0  0  0  0  0
   -0.5059   -7.8299   18.3081 C   0  0  0  0  0  0  0  0  0  0  0  0
    0.8994   -7.4955   17.3262 S   0  0  0  0  0  0  0  0  0  0  0  0
    1.3800   -6.1191   18.2922 C   0  0  0  0  0  0  0  0  0  0  0  0
    2.2638   -5.2663   17.7159 C   0  0  0  0  0  0  0  0  0  0  0  0
    2.6898   -3.9482   18.0629 C   0  0  0  0  0  0  0  0  0  0  0  0
    2.9743   -2.9348   17.1483 C   0  0  0  0  0  0  0  0  0  0  0  0
    3.4432   -1.7296   17.7498 C   0  0  0  0  0  0  0  0  0  0  0  0
    3.5417   -1.8602   19.1131 C   0  0  0  0  0  0  0  0  0  0  0  0
    2.9850   -3.3832   19.6444 S   0  0  0  0  0  0  0  0  0  0  0  0
    0.5495   -6.2093   19.5877 C   0  0  0  0  0  0  0  0  0  0  0  0
    0.7270   -5.4168   20.5021 O   0  0  0  0  0  0  0  0  0  0  0  0
   -0.3928   -7.2804   19.5556 N   0  0  0  0  0  0  0  0  0  0  0  0
   -1.3770   -7.7745   20.7320 C   0  0  0  0  0  0  0  0  0  0  0  0
   -2.5194   -8.9119   20.4234 C   0  0  0  0  0  0  0  0  0  0  0  0
   -3.5078   -9.7040   21.4717 C   0  0  0  0  0  0  0  0  0  0  0  0
   -3.6944   -9.6692   22.7951 N   0  0  0  0  0  0  0  0  0  0  0  0
   -4.6835  -10.6404   23.1266 C   0  0  0  0  0  0  0  0  0  0  0  0
   -5.1987  -11.0732   24.3738 C   0  0  0  0  0  0  0  0  0  0  0  0
   -6.0658  -12.1854   24.4341 C   0  0  0  0  0  0  0  0  0  0  0  0
   -6.4377  -12.8568   23.2705 C   0  0  0  0  0  0  0  0  0  0  0  0
   -5.9603  -12.4306   22.0203 C   0  0  0  0  0  0  0  0  0  0  0  0
   -5.0789  -11.3254   21.9885 C   0  0  0  0  0  0  0  0  0  0  0  0
   -4.3658  -10.7076   20.9717 N   0  0  0  0  0  0  0  0  0  0  0  0
    2.6303   -5.5602   16.7305 H   0  0  0  0  0  0  0  0  0  0  0  0
    2.8486   -3.0569   16.0786 H   0  0  0  0  0  0  0  0  0  0  0  0
    3.7116   -0.8307   17.2099 H   0  0  0  0  0  0  0  0  0  0  0  0
    3.8803   -1.1289   19.8330 H   0  0  0  0  0  0  0  0  0  0  0  0
   -1.8574   -6.8688   21.1169 H   0  0  0  0  0  0  0  0  0  0  0  0
   -0.7088   -8.1483   21.5159 H   0  0  0  0  0  0  0  0  0  0  0  0
   -2.0124   -9.7346   19.9089 H   0  0  0  0  0  0  0  0  0  0  0  0
   -3.2128   -8.4582   19.7024 H   0  0  0  0  0  0  0  0  0  0  0  0
   -4.8884  -10.5665   25.2821 H   0  0  0  0  0  0  0  0  0  0  0  0
   -6.4401  -12.5178   25.3994 H   0  0  0  0  0  0  0  0  0  0  0  0
   -7.1068  -13.7120   23.3289 H   0  0  0  0  0  0  0  0  0  0  0  0
   -6.2398  -12.9522   21.1102 H   0  0  0  0  0  0  0  0  0  0  0  0
   -4.4119  -10.9628   19.9963 H   0  0  0  0  0  0  0  0  0  0  0  0
  1  2  2  0
  2  3  1  0
  3  4  1  0
  4  5  2  3
  5  6  1  0
  6  7  2  0
  7  8  1  0
  8  9  2  0
  9 10  1  0
  4 11  1  0
 11 12  2  0
 11 13  1  0
 13 14  1  0
 14 15  1  0
 15 16  1  0
 16 17  2  0
 17 18  1  0
 18 19  2  0
 19 20  1  0
 20 21  2  0
 21 22  1  0
 22 23  2  0
 23 24  1  0
 13  2  1  0
 24 16  1  0
 10  6  1  0
 23 18  1  0
  5 25  1  0
  7 26  1  0
  8 27  1  0
  9 28  1  0
 14 29  1  0
 14 30  1  0
 15 31  1  0
 15 32  1  0
 19 33  1  0
 20 34  1  0
 21 35  1  0
 22 36  1  0
 24 37  1  0
M  END
>  <Energy>  (150) 
25.884752752826842

>  <compound_id>  (150) 
4841

>  <target_id>  (150) 
1

>  <reference_id>  (150) 
76

>  <inspiration_ids>  (150) 
[94, 76]

>  <energy_score>  (150) 
8.560820852393363

>  <distance_score>  (150) 
15.5082768760021

>  <path>  (150) 
/opt/xchem-fragalysis-2/maxwin/BulkDock/SCRATCH/511018/C4841-P76/C4841-P76.minimised.mol

>  <scratch_subdir>  (150) 
/opt/xchem-fragalysis-2/maxwin/BulkDock/SCRATCH/511018/C4841-P76

>  <fragmenstein_runtime>  (150) 
10.218517303466797

>  <fragmenstein_outcome>  (150) 
too moved

>  <fragmenstein_mode>  (150) 
expansion

>  <fragmenstein_error>  (150) 


$$$$
C4846-P94
     RDKit          3D

 41 44  0  0  0  0  0  0  0  0999 V2000
    3.4310  -13.1335   21.6906 O   0  0  0  0  0  0  0  0  0  0  0  0
    3.3672  -12.5067   22.7510 C   0  0  0  0  0  0  0  0  0  0  0  0
    4.7897  -10.9851   22.7209 C   0  0  0  0  0  0  0  0  0  0  0  0
    6.2141  -10.8680   21.6802 C   0  0  0  0  0  0  0  0  0  0  0  0
    6.6228  -11.5537   20.5542 C   0  0  0  0  0  0  0  0  0  0  0  0
    7.8875  -11.1811   20.2423 O   0  0  0  0  0  0  0  0  0  0  0  0
    8.2695  -10.3193   21.2459 C   0  0  0  0  0  0  0  0  0  0  0  0
    9.6617  -10.0179   21.4663 C   0  0  0  0  0  0  0  0  0  0  0  0
   10.7223  -10.5014   20.7216 C   0  0  0  0  0  0  0  0  0  0  0  0
   11.9825  -10.2505   21.3421 C   0  0  0  0  0  0  0  0  0  0  0  0
   11.8560   -9.4590   22.4589 C   0  0  0  0  0  0  0  0  0  0  0  0
   10.2175   -9.1881   22.8515 S   0  0  0  0  0  0  0  0  0  0  0  0
    7.2723  -10.0330   22.0776 N   0  0  0  0  0  0  0  0  0  0  0  0
    2.0379  -12.8840   24.0248 N   0  0  0  0  0  0  0  0  0  0  0  0
    0.5322  -14.2686   24.0680 C   0  0  0  0  0  0  0  0  0  0  0  0
   -1.3580  -15.1435   24.6489 C   0  0  0  0  0  0  0  0  0  0  0  0
   -2.3501  -16.8265   25.4473 C   0  0  0  0  0  0  0  0  0  0  0  0
   -2.6598  -16.9860   26.9338 N   0  0  0  0  0  0  0  0  0  0  0  0
   -2.7533  -18.4207   27.4621 C   0  0  0  0  0  0  0  0  0  0  0  0
   -3.6374  -19.1132   28.3692 C   0  0  0  0  0  0  0  0  0  0  0  0
   -3.4107  -20.4714   28.6080 C   0  0  0  0  0  0  0  0  0  0  0  0
   -2.4913  -21.1938   27.8515 C   0  0  0  0  0  0  0  0  0  0  0  0
   -1.7493  -20.5676   26.8444 C   0  0  0  0  0  0  0  0  0  0  0  0
   -1.9685  -19.1967   26.6831 C   0  0  0  0  0  0  0  0  0  0  0  0
   -1.4875  -18.2157   25.8770 N   0  0  0  0  0  0  0  0  0  0  0  0
    5.5670  -11.2368   23.5566 H   0  0  0  0  0  0  0  0  0  0  0  0
    4.7646   -9.9901   23.2026 H   0  0  0  0  0  0  0  0  0  0  0  0
    6.1931  -12.3280   19.9340 H   0  0  0  0  0  0  0  0  0  0  0  0
   10.5967  -11.0927   19.8213 H   0  0  0  0  0  0  0  0  0  0  0  0
   12.9363  -10.5968   20.9595 H   0  0  0  0  0  0  0  0  0  0  0  0
   12.6433   -9.0813   23.0972 H   0  0  0  0  0  0  0  0  0  0  0  0
    2.2072  -12.3273   24.8448 H   0  0  0  0  0  0  0  0  0  0  0  0
    0.6952  -13.9992   25.1108 H   0  0  0  0  0  0  0  0  0  0  0  0
   -0.0653  -13.9038   23.2252 H   0  0  0  0  0  0  0  0  0  0  0  0
   -1.8274  -14.4066   25.3316 H   0  0  0  0  0  0  0  0  0  0  0  0
   -1.8709  -15.2474   23.7228 H   0  0  0  0  0  0  0  0  0  0  0  0
   -4.3931  -18.5612   28.9188 H   0  0  0  0  0  0  0  0  0  0  0  0
   -3.9293  -20.9364   29.4296 H   0  0  0  0  0  0  0  0  0  0  0  0
   -2.3432  -22.2518   28.0501 H   0  0  0  0  0  0  0  0  0  0  0  0
   -1.0529  -21.1181   26.2236 H   0  0  0  0  0  0  0  0  0  0  0  0
   -0.5052  -18.1529   25.8696 H   0  0  0  0  0  0  0  0  0  0  0  0
  1  2  2  0
  2  3  1  0
  3  4  1  0
  4  5  2  0
  5  6  1  0
  6  7  1  0
  7  8  1  0
  8  9  2  0
  9 10  1  0
 10 11  2  0
 11 12  1  0
  7 13  2  0
  2 14  1  0
 14 15  1  0
 15 16  1  0
 16 17  1  0
 17 18  2  0
 18 19  1  0
 19 20  2  0
 20 21  1  0
 21 22  2  0
 22 23  1  0
 23 24  2  0
 24 25  1  0
 13  4  1  0
 25 17  1  0
 12  8  1  0
 24 19  1  0
  3 26  1  0
  3 27  1  0
  5 28  1  0
  9 29  1  0
 10 30  1  0
 11 31  1  0
 14 32  1  0
 15 33  1  0
 15 34  1  0
 16 35  1  0
 16 36  1  0
 20 37  1  0
 21 38  1  0
 22 39  1  0
 23 40  1  0
 25 41  1  0
M  END
>  <Energy>  (151) 
764.91853598475802

>  <compound_id>  (151) 
4846

>  <target_id>  (151) 
1

>  <reference_id>  (151) 
94

>  <inspiration_ids>  (151) 
[94, 76]

>  <energy_score>  (151) 
684.1632129648315

>  <distance_score>  (151) 
12.94078604711089

>  <path>  (151) 
/opt/xchem-fragalysis-2/maxwin/BulkDock/SCRATCH/511018/C4846-P94/C4846-P94.minimised.mol

>  <scratch_subdir>  (151) 
/opt/xchem-fragalysis-2/maxwin/BulkDock/SCRATCH/511018/C4846-P94

>  <fragmenstein_runtime>  (151) 
41.116732597351074

>  <fragmenstein_outcome>  (151) 
too moved

>  <fragmenstein_mode>  (151) 
expansion

>  <fragmenstein_error>  (151) 


$$$$
C4846-P76
     RDKit          3D

 41 44  0  0  0  0  0  0  0  0999 V2000
    6.3012  -11.8374   20.8717 O   0  0  0  0  0  0  0  0  0  0  0  0
    6.0375  -10.9698   21.6837 C   0  0  0  0  0  0  0  0  0  0  0  0
    7.0627   -9.8244   21.9385 C   0  0  0  0  0  0  0  0  0  0  0  0
    8.5325  -10.1795   21.7139 C   0  0  0  0  0  0  0  0  0  0  0  0
    9.1404  -10.8958   20.7099 C   0  0  0  0  0  0  0  0  0  0  0  0
   10.4890  -10.8418   20.8827 O   0  0  0  0  0  0  0  0  0  0  0  0
   10.6891  -10.0140   21.9650 C   0  0  0  0  0  0  0  0  0  0  0  0
   11.9850   -9.4818   22.3309 C   0  0  0  0  0  0  0  0  0  0  0  0
   12.2459   -8.3348   23.0574 C   0  0  0  0  0  0  0  0  0  0  0  0
   13.6054   -7.9158   22.9587 C   0  0  0  0  0  0  0  0  0  0  0  0
   14.3697   -8.8267   22.2670 C   0  0  0  0  0  0  0  0  0  0  0  0
   13.4565  -10.1943   21.7929 S   0  0  0  0  0  0  0  0  0  0  0  0
    9.5440   -9.6171   22.5055 N   0  0  0  0  0  0  0  0  0  0  0  0
    4.7821  -10.8309   22.6904 N   0  0  0  0  0  0  0  0  0  0  0  0
    3.3158  -12.0571   23.0658 C   0  0  0  0  0  0  0  0  0  0  0  0
    2.7563  -13.0962   24.4389 C   0  0  0  0  0  0  0  0  0  0  0  0
    1.5463  -13.1524   26.0095 C   0  0  0  0  0  0  0  0  0  0  0  0
    1.8406  -13.7798   27.2083 N   0  0  0  0  0  0  0  0  0  0  0  0
    0.8533  -13.5889   28.1375 C   0  0  0  0  0  0  0  0  0  0  0  0
    0.6451  -14.1355   29.3988 C   0  0  0  0  0  0  0  0  0  0  0  0
   -0.4501  -13.6465   30.0974 C   0  0  0  0  0  0  0  0  0  0  0  0
   -1.3367  -12.7320   29.4972 C   0  0  0  0  0  0  0  0  0  0  0  0
   -1.1723  -12.2437   28.2217 C   0  0  0  0  0  0  0  0  0  0  0  0
   -0.0168  -12.6685   27.6298 C   0  0  0  0  0  0  0  0  0  0  0  0
    0.6460  -12.2454   26.5353 N   0  0  0  0  0  0  0  0  0  0  0  0
    6.8640   -8.9877   21.2696 H   0  0  0  0  0  0  0  0  0  0  0  0
    6.9530   -9.4756   22.9711 H   0  0  0  0  0  0  0  0  0  0  0  0
    8.7886  -11.4690   19.8628 H   0  0  0  0  0  0  0  0  0  0  0  0
   11.4805   -7.7813   23.5822 H   0  0  0  0  0  0  0  0  0  0  0  0
   14.0081   -7.0089   23.3941 H   0  0  0  0  0  0  0  0  0  0  0  0
   15.4296   -8.7828   22.0537 H   0  0  0  0  0  0  0  0  0  0  0  0
    4.9181  -10.0228   23.2903 H   0  0  0  0  0  0  0  0  0  0  0  0
    3.4265  -12.7729   22.2530 H   0  0  0  0  0  0  0  0  0  0  0  0
    2.4269  -11.4792   23.0306 H   0  0  0  0  0  0  0  0  0  0  0  0
    3.6387  -13.6350   24.8355 H   0  0  0  0  0  0  0  0  0  0  0  0
    2.4191  -13.8600   23.7428 H   0  0  0  0  0  0  0  0  0  0  0  0
    1.3349  -14.8534   29.8228 H   0  0  0  0  0  0  0  0  0  0  0  0
   -0.5811  -13.9764   31.1243 H   0  0  0  0  0  0  0  0  0  0  0  0
   -2.1919  -12.3155   30.0031 H   0  0  0  0  0  0  0  0  0  0  0  0
   -1.8471  -11.5277   27.7807 H   0  0  0  0  0  0  0  0  0  0  0  0
    0.4837  -11.4195   26.0335 H   0  0  0  0  0  0  0  0  0  0  0  0
  1  2  2  0
  2  3  1  0
  3  4  1  0
  4  5  2  0
  5  6  1  0
  6  7  1  0
  7  8  1  0
  8  9  2  0
  9 10  1  0
 10 11  2  0
 11 12  1  0
  7 13  2  0
  2 14  1  0
 14 15  1  0
 15 16  1  0
 16 17  1  0
 17 18  2  0
 18 19  1  0
 19 20  2  0
 20 21  1  0
 21 22  2  0
 22 23  1  0
 23 24  2  0
 24 25  1  0
 13  4  1  0
 25 17  1  0
 12  8  1  0
 24 19  1  0
  3 26  1  0
  3 27  1  0
  5 28  1  0
  9 29  1  0
 10 30  1  0
 11 31  1  0
 14 32  1  0
 15 33  1  0
 15 34  1  0
 16 35  1  0
 16 36  1  0
 20 37  1  0
 21 38  1  0
 22 39  1  0
 23 40  1  0
 25 41  1  0
M  END
>  <Energy>  (152) 
274.4380235314236

>  <compound_id>  (152) 
4846

>  <target_id>  (152) 
1

>  <reference_id>  (152) 
76

>  <inspiration_ids>  (152) 
[94, 76]

>  <energy_score>  (152) 
193.68270051150603

>  <distance_score>  (152) 
14.619439023164283

>  <path>  (152) 
/opt/xchem-fragalysis-2/maxwin/BulkDock/SCRATCH/511018/C4846-P76/C4846-P76.minimised.mol

>  <scratch_subdir>  (152) 
/opt/xchem-fragalysis-2/maxwin/BulkDock/SCRATCH/511018/C4846-P76

>  <fragmenstein_runtime>  (152) 
19.17220449447632

>  <fragmenstein_outcome>  (152) 
too moved

>  <fragmenstein_mode>  (152) 
expansion

>  <fragmenstein_error>  (152) 


$$$$
C4847-P94
     RDKit          3D

 41 44  0  0  0  0  0  0  0  0999 V2000
    3.9762   -7.7412   18.2249 O   0  0  0  0  0  0  0  0  0  0  0  0
    4.9508   -8.4532   18.1997 C   0  0  0  0  0  0  0  0  0  0  0  0
    6.3642   -7.8176   18.6510 C   0  0  0  0  0  0  0  0  0  0  0  0
    7.1615   -6.4582   19.1456 C   0  0  0  0  0  0  0  0  0  0  0  0
    6.5616   -5.4118   19.8978 C   0  0  0  0  0  0  0  0  0  0  0  0
    8.0563   -4.3058   20.8553 S   0  0  0  0  0  0  0  0  0  0  0  0
    9.9658   -5.4108   20.0531 C   0  0  0  0  0  0  0  0  0  0  0  0
   11.7578   -5.2107   20.2956 C   0  0  0  0  0  0  0  0  0  0  0  0
   12.7259   -4.8955   19.2774 C   0  0  0  0  0  0  0  0  0  0  0  0
   14.0662   -4.6573   19.6825 C   0  0  0  0  0  0  0  0  0  0  0  0
   14.1687   -4.6600   21.0410 C   0  0  0  0  0  0  0  0  0  0  0  0
   12.6574   -4.8098   21.7895 S   0  0  0  0  0  0  0  0  0  0  0  0
    9.1678   -6.1713   19.1495 N   0  0  0  0  0  0  0  0  0  0  0  0
    5.1041   -9.9459   17.7456 N   0  0  0  0  0  0  0  0  0  0  0  0
    4.0336  -10.9612   17.0721 C   0  0  0  0  0  0  0  0  0  0  0  0
    4.1652  -12.5783   17.3681 C   0  0  0  0  0  0  0  0  0  0  0  0
    2.9735  -13.7444   17.3456 C   0  0  0  0  0  0  0  0  0  0  0  0
    3.0786  -14.9379   17.9561 N   0  0  0  0  0  0  0  0  0  0  0  0
    1.8827  -15.6472   17.7809 C   0  0  0  0  0  0  0  0  0  0  0  0
    1.4415  -16.9047   18.2666 C   0  0  0  0  0  0  0  0  0  0  0  0
    0.0908  -17.2827   18.1668 C   0  0  0  0  0  0  0  0  0  0  0  0
   -0.8086  -16.4493   17.5125 C   0  0  0  0  0  0  0  0  0  0  0  0
   -0.3759  -15.2399   16.9281 C   0  0  0  0  0  0  0  0  0  0  0  0
    0.9785  -14.8582   17.0857 C   0  0  0  0  0  0  0  0  0  0  0  0
    1.7275  -13.7374   16.7108 N   0  0  0  0  0  0  0  0  0  0  0  0
    6.3704   -7.3618   17.6542 H   0  0  0  0  0  0  0  0  0  0  0  0
    6.9975   -8.6553   18.9546 H   0  0  0  0  0  0  0  0  0  0  0  0
    5.5688   -5.1524   20.2342 H   0  0  0  0  0  0  0  0  0  0  0  0
   12.4551   -4.7663   18.2363 H   0  0  0  0  0  0  0  0  0  0  0  0
   14.8915   -4.4454   19.0144 H   0  0  0  0  0  0  0  0  0  0  0  0
   15.0534   -4.4813   21.6367 H   0  0  0  0  0  0  0  0  0  0  0  0
    6.0828  -10.2094   17.7773 H   0  0  0  0  0  0  0  0  0  0  0  0
    3.0314  -10.5869   17.2789 H   0  0  0  0  0  0  0  0  0  0  0  0
    4.1931  -10.8197   15.9967 H   0  0  0  0  0  0  0  0  0  0  0  0
    4.9229  -12.9594   16.6698 H   0  0  0  0  0  0  0  0  0  0  0  0
    4.6044  -12.6806   18.3679 H   0  0  0  0  0  0  0  0  0  0  0  0
    2.1546  -17.5683   18.7319 H   0  0  0  0  0  0  0  0  0  0  0  0
   -0.2366  -18.2304   18.5861 H   0  0  0  0  0  0  0  0  0  0  0  0
   -1.8503  -16.7476   17.4216 H   0  0  0  0  0  0  0  0  0  0  0  0
   -1.0787  -14.6032   16.3992 H   0  0  0  0  0  0  0  0  0  0  0  0
    1.3867  -13.0026   16.1090 H   0  0  0  0  0  0  0  0  0  0  0  0
  1  2  2  0
  2  3  1  0
  3  4  1  0
  4  5  2  0
  5  6  1  0
  6  7  1  0
  7  8  1  0
  8  9  2  0
  9 10  1  0
 10 11  2  0
 11 12  1  0
  7 13  2  0
  2 14  1  0
 14 15  1  0
 15 16  1  0
 16 17  1  0
 17 18  2  0
 18 19  1  0
 19 20  2  0
 20 21  1  0
 21 22  2  0
 22 23  1  0
 23 24  2  0
 24 25  1  0
 13  4  1  0
 25 17  1  0
 12  8  1  0
 24 19  1  0
  3 26  1  0
  3 27  1  0
  5 28  1  0
  9 29  1  0
 10 30  1  0
 11 31  1  0
 14 32  1  0
 15 33  1  0
 15 34  1  0
 16 35  1  0
 16 36  1  0
 20 37  1  0
 21 38  1  0
 22 39  1  0
 23 40  1  0
 25 41  1  0
M  END
>  <Energy>  (153) 
434.29616062117418

>  <compound_id>  (153) 
4847

>  <target_id>  (153) 
1

>  <reference_id>  (153) 
94

>  <inspiration_ids>  (153) 
[94, 76]

>  <energy_score>  (153) 
300.57584882456615

>  <distance_score>  (153) 
15.355390179387964

>  <path>  (153) 
/opt/xchem-fragalysis-2/maxwin/BulkDock/SCRATCH/511018/C4847-P94/C4847-P94.minimised.mol

>  <scratch_subdir>  (153) 
/opt/xchem-fragalysis-2/maxwin/BulkDock/SCRATCH/511018/C4847-P94

>  <fragmenstein_runtime>  (153) 
30.69044017791748

>  <fragmenstein_outcome>  (153) 
too moved

>  <fragmenstein_mode>  (153) 
expansion

>  <fragmenstein_error>  (153) 


$$$$
C4847-P76
     RDKit          3D

 41 44  0  0  0  0  0  0  0  0999 V2000
    0.5586  -16.2167   18.0072 O   0  0  0  0  0  0  0  0  0  0  0  0
    1.3776  -17.0207   18.3707 C   0  0  0  0  0  0  0  0  0  0  0  0
    2.9336  -16.6880   17.9943 C   0  0  0  0  0  0  0  0  0  0  0  0
    3.3733  -15.1839   17.6114 C   0  0  0  0  0  0  0  0  0  0  0  0
    2.6543  -14.3056   16.8191 C   0  0  0  0  0  0  0  0  0  0  0  0
    3.5482  -12.9040   16.4255 S   0  0  0  0  0  0  0  0  0  0  0  0
    4.9062  -13.4796   17.3230 C   0  0  0  0  0  0  0  0  0  0  0  0
    6.1509  -12.7072   17.3861 C   0  0  0  0  0  0  0  0  0  0  0  0
    6.9964  -12.5360   18.4712 C   0  0  0  0  0  0  0  0  0  0  0  0
    8.1449  -11.7313   18.1808 C   0  0  0  0  0  0  0  0  0  0  0  0
    8.1690  -11.3324   16.8666 C   0  0  0  0  0  0  0  0  0  0  0  0
    6.7797  -11.8500   16.0207 S   0  0  0  0  0  0  0  0  0  0  0  0
    4.6800  -14.6517   17.9256 N   0  0  0  0  0  0  0  0  0  0  0  0
    1.2118  -18.3047   19.1275 N   0  0  0  0  0  0  0  0  0  0  0  0
   -0.0392  -18.9465   19.7644 C   0  0  0  0  0  0  0  0  0  0  0  0
    0.1377  -20.2912   20.6055 C   0  0  0  0  0  0  0  0  0  0  0  0
   -1.0973  -20.9659   21.3428 C   0  0  0  0  0  0  0  0  0  0  0  0
   -2.2137  -21.4585   20.8083 N   0  0  0  0  0  0  0  0  0  0  0  0
   -2.9693  -22.0231   21.8407 C   0  0  0  0  0  0  0  0  0  0  0  0
   -4.2553  -22.6088   21.8395 C   0  0  0  0  0  0  0  0  0  0  0  0
   -4.8290  -23.0388   23.0497 C   0  0  0  0  0  0  0  0  0  0  0  0
   -4.1300  -22.9023   24.2473 C   0  0  0  0  0  0  0  0  0  0  0  0
   -2.8456  -22.3387   24.2694 C   0  0  0  0  0  0  0  0  0  0  0  0
   -2.3005  -21.9017   23.0471 C   0  0  0  0  0  0  0  0  0  0  0  0
   -1.1154  -21.2627   22.7096 N   0  0  0  0  0  0  0  0  0  0  0  0
    3.1521  -17.2922   17.1038 H   0  0  0  0  0  0  0  0  0  0  0  0
    3.5956  -17.0360   18.7865 H   0  0  0  0  0  0  0  0  0  0  0  0
    1.6607  -14.4480   16.4155 H   0  0  0  0  0  0  0  0  0  0  0  0
    6.7967  -12.9828   19.4383 H   0  0  0  0  0  0  0  0  0  0  0  0
    8.9239  -11.4885   18.8921 H   0  0  0  0  0  0  0  0  0  0  0  0
    8.9176  -10.7379   16.3583 H   0  0  0  0  0  0  0  0  0  0  0  0
    2.1080  -18.7722   19.1909 H   0  0  0  0  0  0  0  0  0  0  0  0
   -0.4754  -18.1707   20.4025 H   0  0  0  0  0  0  0  0  0  0  0  0
   -0.7413  -19.1170   18.9413 H   0  0  0  0  0  0  0  0  0  0  0  0
    0.9158  -20.1220   21.3571 H   0  0  0  0  0  0  0  0  0  0  0  0
    0.5361  -21.0541   19.9242 H   0  0  0  0  0  0  0  0  0  0  0  0
   -4.7956  -22.7030   20.9039 H   0  0  0  0  0  0  0  0  0  0  0  0
   -5.8206  -23.4840   23.0494 H   0  0  0  0  0  0  0  0  0  0  0  0
   -4.5840  -23.2373   25.1763 H   0  0  0  0  0  0  0  0  0  0  0  0
   -2.3025  -22.2241   25.2014 H   0  0  0  0  0  0  0  0  0  0  0  0
   -0.4127  -20.9853   23.3855 H   0  0  0  0  0  0  0  0  0  0  0  0
  1  2  2  0
  2  3  1  0
  3  4  1  0
  4  5  2  0
  5  6  1  0
  6  7  1  0
  7  8  1  0
  8  9  2  0
  9 10  1  0
 10 11  2  0
 11 12  1  0
  7 13  2  0
  2 14  1  0
 14 15  1  0
 15 16  1  0
 16 17  1  0
 17 18  2  0
 18 19  1  0
 19 20  2  0
 20 21  1  0
 21 22  2  0
 22 23  1  0
 23 24  2  0
 24 25  1  0
 13  4  1  0
 25 17  1  0
 12  8  1  0
 24 19  1  0
  3 26  1  0
  3 27  1  0
  5 28  1  0
  9 29  1  0
 10 30  1  0
 11 31  1  0
 14 32  1  0
 15 33  1  0
 15 34  1  0
 16 35  1  0
 16 36  1  0
 20 37  1  0
 21 38  1  0
 22 39  1  0
 23 40  1  0
 25 41  1  0
M  END
>  <Energy>  (154) 
79.978430244997625

>  <compound_id>  (154) 
4847

>  <target_id>  (154) 
1

>  <reference_id>  (154) 
76

>  <inspiration_ids>  (154) 
[94, 76]

>  <energy_score>  (154) 
-53.74188155160664

>  <distance_score>  (154) 
15.144274051457929

>  <path>  (154) 
/opt/xchem-fragalysis-2/maxwin/BulkDock/SCRATCH/511018/C4847-P76/C4847-P76.minimised.mol

>  <scratch_subdir>  (154) 
/opt/xchem-fragalysis-2/maxwin/BulkDock/SCRATCH/511018/C4847-P76

>  <fragmenstein_runtime>  (154) 
23.144946098327637

>  <fragmenstein_outcome>  (154) 
too moved

>  <fragmenstein_mode>  (154) 
expansion

>  <fragmenstein_error>  (154) 


$$$$
C4850-P94
     RDKit          3D

 46 48  0  0  0  0  0  0  0  0999 V2000
    2.6710  -19.0019   31.2759 C   0  0  0  0  0  0  0  0  0  0  0  0
    3.4585  -18.1905   30.2327 C   0  0  0  0  0  0  0  0  0  0  0  0
    4.6114  -17.4974   30.9811 C   0  0  0  0  0  0  0  0  0  0  0  0
    2.5779  -17.1562   29.4574 C   0  0  0  0  0  0  0  0  0  0  0  0
    3.4135  -16.3099   28.4828 N   0  0  0  0  0  0  0  0  0  0  0  0
    4.7145  -16.6397   27.7295 C   0  0  0  0  0  0  0  0  0  0  0  0
    5.3136  -17.6488   27.6747 O   0  0  0  0  0  0  0  0  0  0  0  0
    5.0843  -15.2430   27.1403 N   0  0  0  0  0  0  0  0  0  0  0  0
    6.2509  -14.8156   26.2555 C   0  0  0  0  0  0  0  0  0  0  0  0
    6.8911  -13.3563   26.3884 C   0  0  0  0  0  0  0  0  0  0  0  0
    7.7418  -12.7577   25.2349 C   0  0  0  0  0  0  0  0  0  0  0  0
    8.5024  -13.3526   24.2399 C   0  0  0  0  0  0  0  0  0  0  0  0
    9.1145  -12.4143   23.3402 C   0  0  0  0  0  0  0  0  0  0  0  0
    8.8517  -11.1127   23.6925 C   0  0  0  0  0  0  0  0  0  0  0  0
    7.8957  -11.0289   25.1068 S   0  0  0  0  0  0  0  0  0  0  0  0
    1.1618  -17.7754   29.0570 C   0  0  0  0  0  0  0  0  0  0  0  0
    0.8898  -18.9676   28.5233 N   0  0  0  0  0  0  0  0  0  0  0  0
   -0.4553  -19.2495   28.7699 C   0  0  0  0  0  0  0  0  0  0  0  0
   -1.2260  -20.4016   28.4997 C   0  0  0  0  0  0  0  0  0  0  0  0
   -2.5902  -20.4194   28.8368 C   0  0  0  0  0  0  0  0  0  0  0  0
   -3.1796  -19.3167   29.4547 C   0  0  0  0  0  0  0  0  0  0  0  0
   -2.4256  -18.1719   29.7566 C   0  0  0  0  0  0  0  0  0  0  0  0
   -1.0647  -18.1775   29.4015 C   0  0  0  0  0  0  0  0  0  0  0  0
   -0.0393  -17.2649   29.5720 N   0  0  0  0  0  0  0  0  0  0  0  0
    2.1260  -18.3438   31.9612 H   0  0  0  0  0  0  0  0  0  0  0  0
    1.9557  -19.6836   30.8086 H   0  0  0  0  0  0  0  0  0  0  0  0
    3.3454  -19.6248   31.8744 H   0  0  0  0  0  0  0  0  0  0  0  0
    3.8871  -18.9008   29.5153 H   0  0  0  0  0  0  0  0  0  0  0  0
    5.2281  -18.2343   31.5078 H   0  0  0  0  0  0  0  0  0  0  0  0
    4.2273  -16.7900   31.7245 H   0  0  0  0  0  0  0  0  0  0  0  0
    5.2770  -16.9480   30.3123 H   0  0  0  0  0  0  0  0  0  0  0  0
    2.3007  -16.3923   30.2004 H   0  0  0  0  0  0  0  0  0  0  0  0
    3.2133  -15.3348   28.3874 H   0  0  0  0  0  0  0  0  0  0  0  0
    4.3212  -14.6062   27.2892 H   0  0  0  0  0  0  0  0  0  0  0  0
    7.0416  -15.5555   26.4271 H   0  0  0  0  0  0  0  0  0  0  0  0
    5.8989  -14.9928   25.2382 H   0  0  0  0  0  0  0  0  0  0  0  0
    6.0862  -12.6568   26.6154 H   0  0  0  0  0  0  0  0  0  0  0  0
    7.5268  -13.3688   27.2842 H   0  0  0  0  0  0  0  0  0  0  0  0
    8.5999  -14.4274   24.1373 H   0  0  0  0  0  0  0  0  0  0  0  0
    9.7224  -12.6937   22.4880 H   0  0  0  0  0  0  0  0  0  0  0  0
    9.1896  -10.2107   23.2015 H   0  0  0  0  0  0  0  0  0  0  0  0
   -0.7604  -21.2638   28.0334 H   0  0  0  0  0  0  0  0  0  0  0  0
   -3.1891  -21.2969   28.6115 H   0  0  0  0  0  0  0  0  0  0  0  0
   -4.2367  -19.3442   29.7148 H   0  0  0  0  0  0  0  0  0  0  0  0
   -2.8842  -17.3207   30.2488 H   0  0  0  0  0  0  0  0  0  0  0  0
   -0.1319  -16.3911   30.0679 H   0  0  0  0  0  0  0  0  0  0  0  0
  1  2  1  0
  2  3  1  0
  2  4  1  0
  4  5  1  0
  5  6  1  0
  6  7  2  0
  6  8  1  0
  8  9  1  0
  9 10  1  0
 10 11  1  0
 11 12  2  0
 12 13  1  0
 13 14  2  0
 14 15  1  0
  4 16  1  0
 16 17  2  0
 17 18  1  0
 18 19  2  0
 19 20  1  0
 20 21  2  0
 21 22  1  0
 22 23  2  0
 23 24  1  0
 15 11  1  0
 24 16  1  0
 23 18  1  0
  1 25  1  0
  1 26  1  0
  1 27  1  0
  2 28  1  0
  3 29  1  0
  3 30  1  0
  3 31  1  0
  4 32  1  0
  5 33  1  0
  8 34  1  0
  9 35  1  0
  9 36  1  0
 10 37  1  0
 10 38  1  0
 12 39  1  0
 13 40  1  0
 14 41  1  0
 19 42  1  0
 20 43  1  0
 21 44  1  0
 22 45  1  0
 24 46  1  0
M  END
>  <Energy>  (155) 
0.056753560199780395

>  <compound_id>  (155) 
4850

>  <target_id>  (155) 
1

>  <reference_id>  (155) 
94

>  <inspiration_ids>  (155) 
[94, 76]

>  <energy_score>  (155) 
21.245627205002393

>  <distance_score>  (155) 
16.42086504889213

>  <path>  (155) 
/opt/xchem-fragalysis-2/maxwin/BulkDock/SCRATCH/511018/C4850-P94/C4850-P94.minimised.mol

>  <scratch_subdir>  (155) 
/opt/xchem-fragalysis-2/maxwin/BulkDock/SCRATCH/511018/C4850-P94

>  <fragmenstein_runtime>  (155) 
44.684969425201416

>  <fragmenstein_outcome>  (155) 
too moved

>  <fragmenstein_mode>  (155) 
expansion

>  <fragmenstein_error>  (155) 


$$$$
C4850-P76
     RDKit          3D

 46 48  0  0  0  0  0  0  0  0999 V2000
   -3.7760  -10.9915   16.6231 C   0  0  0  0  0  0  0  0  0  0  0  0
   -3.0945   -9.6705   17.0244 C   0  0  0  0  0  0  0  0  0  0  0  0
   -2.3785   -9.1791   15.7424 C   0  0  0  0  0  0  0  0  0  0  0  0
   -2.1065   -9.8445   18.2066 C   0  0  0  0  0  0  0  0  0  0  0  0
   -1.1582   -8.7440   18.4158 N   0  0  0  0  0  0  0  0  0  0  0  0
   -1.3074   -7.2858   18.2198 C   0  0  0  0  0  0  0  0  0  0  0  0
   -2.2505   -6.6540   17.9238 O   0  0  0  0  0  0  0  0  0  0  0  0
    0.1267   -6.8598   18.4117 N   0  0  0  0  0  0  0  0  0  0  0  0
    0.7740   -5.5670   18.1925 C   0  0  0  0  0  0  0  0  0  0  0  0
    2.3270   -5.6080   18.0484 C   0  0  0  0  0  0  0  0  0  0  0  0
    2.8341   -4.5914   17.0580 C   0  0  0  0  0  0  0  0  0  0  0  0
    2.8462   -3.2127   17.1508 C   0  0  0  0  0  0  0  0  0  0  0  0
    3.3153   -2.5896   15.9562 C   0  0  0  0  0  0  0  0  0  0  0  0
    3.6930   -3.5135   15.0097 C   0  0  0  0  0  0  0  0  0  0  0  0
    3.4648   -5.1169   15.5577 S   0  0  0  0  0  0  0  0  0  0  0  0
   -2.4011  -10.6997   19.5202 C   0  0  0  0  0  0  0  0  0  0  0  0
   -2.8104  -11.9599   19.5126 N   0  0  0  0  0  0  0  0  0  0  0  0
   -2.1758  -12.6315   20.5536 C   0  0  0  0  0  0  0  0  0  0  0  0
   -1.9929  -14.2611   20.9686 C   0  0  0  0  0  0  0  0  0  0  0  0
   -0.9168  -14.7944   22.3207 C   0  0  0  0  0  0  0  0  0  0  0  0
   -0.2576  -13.9073   23.1330 C   0  0  0  0  0  0  0  0  0  0  0  0
   -0.3670  -12.3399   22.6297 C   0  0  0  0  0  0  0  0  0  0  0  0
   -1.4914  -11.6865   21.3431 C   0  0  0  0  0  0  0  0  0  0  0  0
   -1.7630  -10.4596   20.7517 N   0  0  0  0  0  0  0  0  0  0  0  0
   -4.4824  -10.8264   15.8017 H   0  0  0  0  0  0  0  0  0  0  0  0
   -3.0393  -11.7294   16.2852 H   0  0  0  0  0  0  0  0  0  0  0  0
   -4.3379  -11.4449   17.4380 H   0  0  0  0  0  0  0  0  0  0  0  0
   -3.8357   -8.9025   17.2620 H   0  0  0  0  0  0  0  0  0  0  0  0
   -1.9495   -8.1823   15.8557 H   0  0  0  0  0  0  0  0  0  0  0  0
   -1.5714   -9.8609   15.4516 H   0  0  0  0  0  0  0  0  0  0  0  0
   -3.0844   -9.1206   14.9058 H   0  0  0  0  0  0  0  0  0  0  0  0
   -1.4359  -10.5737   17.7250 H   0  0  0  0  0  0  0  0  0  0  0  0
   -0.2296   -8.9419   18.7473 H   0  0  0  0  0  0  0  0  0  0  0  0
    0.6643   -7.6400   18.7452 H   0  0  0  0  0  0  0  0  0  0  0  0
    0.3025   -5.1413   17.2991 H   0  0  0  0  0  0  0  0  0  0  0  0
    0.4950   -4.9232   19.0340 H   0  0  0  0  0  0  0  0  0  0  0  0
    2.7836   -5.4242   19.0287 H   0  0  0  0  0  0  0  0  0  0  0  0
    2.6378   -6.6175   17.7507 H   0  0  0  0  0  0  0  0  0  0  0  0
    2.4949   -2.6713   18.0213 H   0  0  0  0  0  0  0  0  0  0  0  0
    3.3748   -1.5192   15.8031 H   0  0  0  0  0  0  0  0  0  0  0  0
    4.0821   -3.3242   14.0186 H   0  0  0  0  0  0  0  0  0  0  0  0
   -2.2134  -15.0943   20.2777 H   0  0  0  0  0  0  0  0  0  0  0  0
   -0.3933  -15.7501   21.9898 H   0  0  0  0  0  0  0  0  0  0  0  0
    0.4532  -14.1029   23.9331 H   0  0  0  0  0  0  0  0  0  0  0  0
    0.4104  -11.5321   22.8185 H   0  0  0  0  0  0  0  0  0  0  0  0
   -1.1997   -9.6368   20.9045 H   0  0  0  0  0  0  0  0  0  0  0  0
  1  2  1  0
  2  3  1  0
  2  4  1  0
  4  5  1  0
  5  6  1  0
  6  7  2  0
  6  8  1  0
  8  9  1  0
  9 10  1  0
 10 11  1  0
 11 12  2  0
 12 13  1  0
 13 14  2  0
 14 15  1  0
  4 16  1  0
 16 17  2  0
 17 18  1  0
 18 19  2  0
 19 20  1  0
 20 21  2  0
 21 22  1  0
 22 23  2  0
 23 24  1  0
 15 11  1  0
 24 16  1  0
 23 18  1  0
  1 25  1  0
  1 26  1  0
  1 27  1  0
  2 28  1  0
  3 29  1  0
  3 30  1  0
  3 31  1  0
  4 32  1  0
  5 33  1  0
  8 34  1  0
  9 35  1  0
  9 36  1  0
 10 37  1  0
 10 38  1  0
 12 39  1  0
 13 40  1  0
 14 41  1  0
 19 42  1  0
 20 43  1  0
 21 44  1  0
 22 45  1  0
 24 46  1  0
M  END
>  <Energy>  (156) 
136.06578037178713

>  <compound_id>  (156) 
4850

>  <target_id>  (156) 
1

>  <reference_id>  (156) 
76

>  <inspiration_ids>  (156) 
[94, 76]

>  <energy_score>  (156) 
157.25465401658744

>  <distance_score>  (156) 
16.538290888008824

>  <path>  (156) 
/opt/xchem-fragalysis-2/maxwin/BulkDock/SCRATCH/511018/C4850-P76/C4850-P76.minimised.mol

>  <scratch_subdir>  (156) 
/opt/xchem-fragalysis-2/maxwin/BulkDock/SCRATCH/511018/C4850-P76

>  <fragmenstein_runtime>  (156) 
24.910879611968994

>  <fragmenstein_outcome>  (156) 
too moved

>  <fragmenstein_mode>  (156) 
expansion

>  <fragmenstein_error>  (156) 


$$$$
C4858-P94
     RDKit          3D

 53 56  0  0  0  0  0  0  0  0999 V2000
   13.7312   -5.2370   20.9277 C   0  0  0  0  0  0  0  0  0  0  0  0
   12.2767   -4.7327   21.0210 C   0  0  0  0  0  0  0  0  0  0  0  0
   11.2107   -5.8104   20.2923 C   0  0  0  0  0  0  0  0  0  0  0  0
    9.4478   -6.2171   19.2329 C   0  0  0  0  0  0  0  0  0  0  0  0
    7.3711   -7.0735   19.7822 N   0  0  0  0  0  0  0  0  0  0  0  0
    6.3912   -7.2378   21.6351 C   0  0  0  0  0  0  0  0  0  0  0  0
    7.0102   -6.7060   22.5352 O   0  0  0  0  0  0  0  0  0  0  0  0
    4.5457   -8.2641   22.5292 C   0  0  0  0  0  0  0  0  0  0  0  0
    2.3968   -8.6847   22.2724 C   0  0  0  0  0  0  0  0  0  0  0  0
    0.8600  -10.1462   21.8091 C   0  0  0  0  0  0  0  0  0  0  0  0
    0.9400  -11.9452   22.7623 N   0  0  0  0  0  0  0  0  0  0  0  0
   -0.1388  -13.6092   23.0254 C   0  0  0  0  0  0  0  0  0  0  0  0
   -0.7267  -14.3398   24.2541 N   0  0  0  0  0  0  0  0  0  0  0  0
   -1.9365  -15.4627   24.1044 C   0  0  0  0  0  0  0  0  0  0  0  0
   -2.9924  -15.9431   24.9394 C   0  0  0  0  0  0  0  0  0  0  0  0
   -3.8181  -16.9793   24.4745 C   0  0  0  0  0  0  0  0  0  0  0  0
   -3.6317  -17.4920   23.1918 C   0  0  0  0  0  0  0  0  0  0  0  0
   -2.6712  -16.9370   22.3230 C   0  0  0  0  0  0  0  0  0  0  0  0
   -1.9178  -15.8349   22.7991 C   0  0  0  0  0  0  0  0  0  0  0  0
   -0.8650  -15.0160   22.2438 N   0  0  0  0  0  0  0  0  0  0  0  0
    2.9222  -11.8663   22.9553 C   0  0  0  0  0  0  0  0  0  0  0  0
    4.4969  -10.4424   22.7829 C   0  0  0  0  0  0  0  0  0  0  0  0
   10.7104   -5.1445   17.8443 C   0  0  0  0  0  0  0  0  0  0  0  0
   11.8788   -5.3676   16.6369 C   0  0  0  0  0  0  0  0  0  0  0  0
   13.0589   -4.5795   16.9359 C   0  0  0  0  0  0  0  0  0  0  0  0
   12.5920   -3.3172   17.1229 C   0  0  0  0  0  0  0  0  0  0  0  0
   11.0519   -3.5678   16.3768 S   0  0  0  0  0  0  0  0  0  0  0  0
   14.3951   -4.5591   21.4744 H   0  0  0  0  0  0  0  0  0  0  0  0
   13.8314   -6.2344   21.3663 H   0  0  0  0  0  0  0  0  0  0  0  0
   14.0752   -5.2689   19.8899 H   0  0  0  0  0  0  0  0  0  0  0  0
   12.2888   -3.7428   20.5680 H   0  0  0  0  0  0  0  0  0  0  0  0
   12.1290   -4.6279   22.1010 H   0  0  0  0  0  0  0  0  0  0  0  0
   11.9011   -5.6094   19.4725 H   0  0  0  0  0  0  0  0  0  0  0  0
   11.6783   -6.7791   20.6820 H   0  0  0  0  0  0  0  0  0  0  0  0
    9.5070   -5.1765   19.6506 H   0  0  0  0  0  0  0  0  0  0  0  0
    6.8005   -7.4325   19.1109 H   0  0  0  0  0  0  0  0  0  0  0  0
    4.8499   -8.0271   21.6143 H   0  0  0  0  0  0  0  0  0  0  0  0
    2.1458   -8.2771   23.2755 H   0  0  0  0  0  0  0  0  0  0  0  0
    1.6317   -7.9705   21.8577 H   0  0  0  0  0  0  0  0  0  0  0  0
   -0.0989   -9.7225   22.1638 H   0  0  0  0  0  0  0  0  0  0  0  0
    0.8385  -10.1296   20.7874 H   0  0  0  0  0  0  0  0  0  0  0  0
   -3.1269  -15.5310   25.9358 H   0  0  0  0  0  0  0  0  0  0  0  0
   -4.5873  -17.3873   25.1247 H   0  0  0  0  0  0  0  0  0  0  0  0
   -4.2463  -18.3220   22.8485 H   0  0  0  0  0  0  0  0  0  0  0  0
   -2.5385  -17.3210   21.3156 H   0  0  0  0  0  0  0  0  0  0  0  0
   -0.1469  -15.6115   21.8557 H   0  0  0  0  0  0  0  0  0  0  0  0
    3.2994  -12.5302   22.1678 H   0  0  0  0  0  0  0  0  0  0  0  0
    3.0025  -12.5691   23.7940 H   0  0  0  0  0  0  0  0  0  0  0  0
    5.4176  -10.7202   23.3742 H   0  0  0  0  0  0  0  0  0  0  0  0
    4.9148  -10.9418   21.8871 H   0  0  0  0  0  0  0  0  0  0  0  0
   12.0058   -6.3719   16.2284 H   0  0  0  0  0  0  0  0  0  0  0  0
   14.0951   -4.8118   16.7391 H   0  0  0  0  0  0  0  0  0  0  0  0
   13.1242   -2.3775   17.1665 H   0  0  0  0  0  0  0  0  0  0  0  0
  1  2  1  0
  2  3  1  0
  3  4  1  0
  4  5  1  0
  5  6  1  0
  6  7  2  0
  6  8  1  0
  8  9  1  0
  9 10  1  0
 10 11  1  0
 11 12  1  0
 12 13  2  0
 13 14  1  0
 14 15  2  0
 15 16  1  0
 16 17  2  0
 17 18  1  0
 18 19  2  0
 19 20  1  0
 11 21  1  0
 21 22  1  0
  4 23  1  0
 23 24  2  0
 24 25  1  0
 25 26  2  0
 26 27  1  0
 22  8  1  0
 27 23  1  0
 20 12  1  0
 19 14  1  0
  1 28  1  0
  1 29  1  0
  1 30  1  0
  2 31  1  0
  2 32  1  0
  3 33  1  0
  3 34  1  0
  4 35  1  0
  5 36  1  0
  8 37  1  0
  9 38  1  0
  9 39  1  0
 10 40  1  0
 10 41  1  0
 15 42  1  0
 16 43  1  0
 17 44  1  0
 18 45  1  0
 20 46  1  0
 21 47  1  0
 21 48  1  0
 22 49  1  0
 22 50  1  0
 24 51  1  0
 25 52  1  0
 26 53  1  0
M  END
>  <Energy>  (157) 
2351.3841499846658

>  <compound_id>  (157) 
4858

>  <target_id>  (157) 
1

>  <reference_id>  (157) 
94

>  <inspiration_ids>  (157) 
[94, 76]

>  <energy_score>  (157) 
2330.183291001881

>  <distance_score>  (157) 
13.0060331036018

>  <path>  (157) 
/opt/xchem-fragalysis-2/maxwin/BulkDock/SCRATCH/511018/C4858-P94/C4858-P94.minimised.mol

>  <scratch_subdir>  (157) 
/opt/xchem-fragalysis-2/maxwin/BulkDock/SCRATCH/511018/C4858-P94

>  <fragmenstein_runtime>  (157) 
29.876945734024048

>  <fragmenstein_outcome>  (157) 
too moved

>  <fragmenstein_mode>  (157) 
expansion

>  <fragmenstein_error>  (157) 


$$$$
C4858-P76
     RDKit          3D

 53 56  0  0  0  0  0  0  0  0999 V2000
   14.8768   -2.8705   18.9589 C   0  0  0  0  0  0  0  0  0  0  0  0
   14.4605   -4.3179   18.7313 C   0  0  0  0  0  0  0  0  0  0  0  0
   12.9560   -4.5696   18.8572 C   0  0  0  0  0  0  0  0  0  0  0  0
   11.8036   -4.3533   17.6729 C   0  0  0  0  0  0  0  0  0  0  0  0
   10.5658   -5.7194   17.8595 N   0  0  0  0  0  0  0  0  0  0  0  0
    9.1040   -6.0984   19.1646 C   0  0  0  0  0  0  0  0  0  0  0  0
    8.9879   -5.1249   19.9269 O   0  0  0  0  0  0  0  0  0  0  0  0
    7.3845   -7.7316   19.6053 C   0  0  0  0  0  0  0  0  0  0  0  0
    5.1352   -7.9891   19.0628 C   0  0  0  0  0  0  0  0  0  0  0  0
    3.0955   -9.0562   19.2254 C   0  0  0  0  0  0  0  0  0  0  0  0
    2.5809   -9.6857   21.3004 N   0  0  0  0  0  0  0  0  0  0  0  0
    0.8707  -10.6320   21.7323 C   0  0  0  0  0  0  0  0  0  0  0  0
    0.7162  -12.0887   22.7215 N   0  0  0  0  0  0  0  0  0  0  0  0
   -0.1241  -13.9094   22.3132 C   0  0  0  0  0  0  0  0  0  0  0  0
   -1.2228  -15.3199   22.2752 C   0  0  0  0  0  0  0  0  0  0  0  0
   -2.2096  -16.0143   23.0448 C   0  0  0  0  0  0  0  0  0  0  0  0
   -2.2366  -15.5495   24.2938 C   0  0  0  0  0  0  0  0  0  0  0  0
   -1.2209  -14.4830   24.5742 C   0  0  0  0  0  0  0  0  0  0  0  0
   -0.2986  -13.6658   23.4674 C   0  0  0  0  0  0  0  0  0  0  0  0
   -0.0988  -11.8435   22.7377 N   0  0  0  0  0  0  0  0  0  0  0  0
    4.7528  -10.6659   21.2840 C   0  0  0  0  0  0  0  0  0  0  0  0
    6.7261  -10.0305   20.0945 C   0  0  0  0  0  0  0  0  0  0  0  0
   12.2586   -3.8619   16.2740 C   0  0  0  0  0  0  0  0  0  0  0  0
   13.4847   -3.3013   15.9187 C   0  0  0  0  0  0  0  0  0  0  0  0
   13.4102   -2.2903   14.9075 C   0  0  0  0  0  0  0  0  0  0  0  0
   12.1482   -2.1882   14.3965 C   0  0  0  0  0  0  0  0  0  0  0  0
   11.0827   -3.2493   15.1685 S   0  0  0  0  0  0  0  0  0  0  0  0
   15.9613   -2.7715   18.8474 H   0  0  0  0  0  0  0  0  0  0  0  0
   14.4022   -2.1806   18.2590 H   0  0  0  0  0  0  0  0  0  0  0  0
   14.6188   -2.5494   19.9737 H   0  0  0  0  0  0  0  0  0  0  0  0
   14.9491   -4.8973   19.5280 H   0  0  0  0  0  0  0  0  0  0  0  0
   14.8817   -4.7277   17.8140 H   0  0  0  0  0  0  0  0  0  0  0  0
   12.6552   -3.9552   19.7180 H   0  0  0  0  0  0  0  0  0  0  0  0
   12.8415   -5.5496   19.3051 H   0  0  0  0  0  0  0  0  0  0  0  0
   11.7094   -3.3090   17.8855 H   0  0  0  0  0  0  0  0  0  0  0  0
   10.5860   -6.4742   17.1990 H   0  0  0  0  0  0  0  0  0  0  0  0
    8.2173   -8.6676   19.0142 H   0  0  0  0  0  0  0  0  0  0  0  0
    4.9304   -6.9391   18.6115 H   0  0  0  0  0  0  0  0  0  0  0  0
    4.9069   -8.3065   17.9373 H   0  0  0  0  0  0  0  0  0  0  0  0
    2.7752   -9.6661   18.3202 H   0  0  0  0  0  0  0  0  0  0  0  0
    2.2272   -8.3519   18.8954 H   0  0  0  0  0  0  0  0  0  0  0  0
   -0.9701  -16.0282   21.4438 H   0  0  0  0  0  0  0  0  0  0  0  0
   -2.7481  -16.8852   22.6990 H   0  0  0  0  0  0  0  0  0  0  0  0
   -2.9550  -15.8655   25.0422 H   0  0  0  0  0  0  0  0  0  0  0  0
   -1.5528  -13.8280   25.4403 H   0  0  0  0  0  0  0  0  0  0  0  0
   -0.9840  -11.5660   22.3727 H   0  0  0  0  0  0  0  0  0  0  0  0
    4.6679  -11.7696   21.0166 H   0  0  0  0  0  0  0  0  0  0  0  0
    4.9553  -10.6812   22.3827 H   0  0  0  0  0  0  0  0  0  0  0  0
    6.2463  -10.4260   19.1102 H   0  0  0  0  0  0  0  0  0  0  0  0
    7.4731  -10.7729   19.7703 H   0  0  0  0  0  0  0  0  0  0  0  0
   14.4265   -3.4890   16.3982 H   0  0  0  0  0  0  0  0  0  0  0  0
   14.2512   -1.7054   14.5546 H   0  0  0  0  0  0  0  0  0  0  0  0
   11.8020   -1.5296   13.6121 H   0  0  0  0  0  0  0  0  0  0  0  0
  1  2  1  0
  2  3  1  0
  3  4  1  0
  4  5  1  0
  5  6  1  0
  6  7  2  0
  6  8  1  0
  8  9  1  0
  9 10  1  0
 10 11  1  0
 11 12  1  0
 12 13  2  0
 13 14  1  0
 14 15  2  0
 15 16  1  0
 16 17  2  0
 17 18  1  0
 18 19  2  0
 19 20  1  0
 11 21  1  0
 21 22  1  0
  4 23  1  0
 23 24  2  0
 24 25  1  0
 25 26  2  0
 26 27  1  0
 22  8  1  0
 27 23  1  0
 20 12  1  0
 19 14  1  0
  1 28  1  0
  1 29  1  0
  1 30  1  0
  2 31  1  0
  2 32  1  0
  3 33  1  0
  3 34  1  0
  4 35  1  0
  5 36  1  0
  8 37  1  0
  9 38  1  0
  9 39  1  0
 10 40  1  0
 10 41  1  0
 15 42  1  0
 16 43  1  0
 17 44  1  0
 18 45  1  0
 20 46  1  0
 21 47  1  0
 21 48  1  0
 22 49  1  0
 22 50  1  0
 24 51  1  0
 25 52  1  0
 26 53  1  0
M  END
>  <Energy>  (158) 
3321.3691008168116

>  <compound_id>  (158) 
4858

>  <target_id>  (158) 
1

>  <reference_id>  (158) 
76

>  <inspiration_ids>  (158) 
[94, 76]

>  <energy_score>  (158) 
3300.168241833976

>  <distance_score>  (158) 
13.303093265038504

>  <path>  (158) 
/opt/xchem-fragalysis-2/maxwin/BulkDock/SCRATCH/511018/C4858-P76/C4858-P76.minimised.mol

>  <scratch_subdir>  (158) 
/opt/xchem-fragalysis-2/maxwin/BulkDock/SCRATCH/511018/C4858-P76

>  <fragmenstein_runtime>  (158) 
15.594638347625732

>  <fragmenstein_outcome>  (158) 
too moved

>  <fragmenstein_mode>  (158) 
expansion

>  <fragmenstein_error>  (158) 


$$$$
C4859-P94
     RDKit          3D

 47 50  0  0  0  0  0  0  0  0999 V2000
    2.9300  -11.8553   22.7684 O   0  0  0  0  0  0  0  0  0  0  0  0
    3.5318  -12.8511   22.4518 C   0  0  0  0  0  0  0  0  0  0  0  0
    4.5525  -13.1789   21.0037 N   0  0  0  0  0  0  0  0  0  0  0  0
    4.9731  -12.3415   19.9612 C   0  0  0  0  0  0  0  0  0  0  0  0
    6.2429  -12.6742   19.0484 C   0  0  0  0  0  0  0  0  0  0  0  0
    7.6038  -12.2029   19.5009 C   0  0  0  0  0  0  0  0  0  0  0  0
    8.6538  -12.9569   19.9928 C   0  0  0  0  0  0  0  0  0  0  0  0
    9.7790  -12.1655   20.3563 C   0  0  0  0  0  0  0  0  0  0  0  0
    9.5787  -10.8396   20.0585 C   0  0  0  0  0  0  0  0  0  0  0  0
    8.0931  -10.5898   19.2519 S   0  0  0  0  0  0  0  0  0  0  0  0
    3.5989  -14.4267   23.7552 C   0  0  0  0  0  0  0  0  0  0  0  0
    4.4584  -15.9377   23.9006 C   0  0  0  0  0  0  0  0  0  0  0  0
    4.7445  -17.1748   24.9573 C   0  0  0  0  0  0  0  0  0  0  0  0
    4.3655  -16.9021   26.3340 N   0  0  0  0  0  0  0  0  0  0  0  0
    3.4020  -17.7329   26.9810 C   0  0  0  0  0  0  0  0  0  0  0  0
    2.9442  -18.9222   26.5854 N   0  0  0  0  0  0  0  0  0  0  0  0
    1.8211  -19.2411   27.3497 C   0  0  0  0  0  0  0  0  0  0  0  0
    0.9002  -20.3107   27.2449 C   0  0  0  0  0  0  0  0  0  0  0  0
   -0.2310  -20.3440   28.0794 C   0  0  0  0  0  0  0  0  0  0  0  0
   -0.4372  -19.3354   29.0202 C   0  0  0  0  0  0  0  0  0  0  0  0
    0.4812  -18.2776   29.1598 C   0  0  0  0  0  0  0  0  0  0  0  0
    1.6012  -18.2598   28.3031 C   0  0  0  0  0  0  0  0  0  0  0  0
    2.6600  -17.3730   28.1128 N   0  0  0  0  0  0  0  0  0  0  0  0
    4.7363  -15.5010   26.5623 C   0  0  0  0  0  0  0  0  0  0  0  0
    4.2250  -14.3893   25.4641 C   0  0  0  0  0  0  0  0  0  0  0  0
    4.8449  -14.1209   20.9870 H   0  0  0  0  0  0  0  0  0  0  0  0
    4.2355  -12.5711   19.2059 H   0  0  0  0  0  0  0  0  0  0  0  0
    5.3289  -11.4772   20.4823 H   0  0  0  0  0  0  0  0  0  0  0  0
    6.0608  -12.2135   18.0662 H   0  0  0  0  0  0  0  0  0  0  0  0
    6.2740  -13.7540   18.8621 H   0  0  0  0  0  0  0  0  0  0  0  0
    8.6208  -14.0312   20.1109 H   0  0  0  0  0  0  0  0  0  0  0  0
   10.6872  -12.5491   20.8048 H   0  0  0  0  0  0  0  0  0  0  0  0
   10.2541  -10.0137   20.2304 H   0  0  0  0  0  0  0  0  0  0  0  0
    2.6667  -14.8007   23.3784 H   0  0  0  0  0  0  0  0  0  0  0  0
    3.9573  -16.5725   23.2273 H   0  0  0  0  0  0  0  0  0  0  0  0
    5.4517  -15.7434   23.7517 H   0  0  0  0  0  0  0  0  0  0  0  0
    4.2700  -18.0899   24.5747 H   0  0  0  0  0  0  0  0  0  0  0  0
    5.8204  -17.4017   24.9294 H   0  0  0  0  0  0  0  0  0  0  0  0
    1.0624  -21.0773   26.4951 H   0  0  0  0  0  0  0  0  0  0  0  0
   -0.9458  -21.1568   27.9856 H   0  0  0  0  0  0  0  0  0  0  0  0
   -1.3166  -19.3662   29.6606 H   0  0  0  0  0  0  0  0  0  0  0  0
    0.3171  -17.4909   29.8890 H   0  0  0  0  0  0  0  0  0  0  0  0
    2.7828  -16.5048   28.6035 H   0  0  0  0  0  0  0  0  0  0  0  0
    5.8340  -15.4511   26.5778 H   0  0  0  0  0  0  0  0  0  0  0  0
    4.4267  -15.1755   27.5640 H   0  0  0  0  0  0  0  0  0  0  0  0
    5.0287  -13.6646   25.6028 H   0  0  0  0  0  0  0  0  0  0  0  0
    3.3484  -14.1139   26.0109 H   0  0  0  0  0  0  0  0  0  0  0  0
  1  2  2  0
  2  3  1  0
  3  4  1  0
  4  5  1  0
  5  6  1  0
  6  7  2  0
  7  8  1  0
  8  9  2  0
  9 10  1  0
  2 11  1  0
 11 12  1  0
 12 13  1  0
 13 14  1  0
 14 15  1  0
 15 16  2  0
 16 17  1  0
 17 18  2  0
 18 19  1  0
 19 20  2  0
 20 21  1  0
 21 22  2  0
 22 23  1  0
 14 24  1  0
 24 25  1  0
 10  6  1  0
 25 11  1  0
 23 15  1  0
 22 17  1  0
  3 26  1  0
  4 27  1  0
  4 28  1  0
  5 29  1  0
  5 30  1  0
  7 31  1  0
  8 32  1  0
  9 33  1  0
 11 34  1  0
 12 35  1  0
 12 36  1  0
 13 37  1  0
 13 38  1  0
 18 39  1  0
 19 40  1  0
 20 41  1  0
 21 42  1  0
 23 43  1  0
 24 44  1  0
 24 45  1  0
 25 46  1  0
 25 47  1  0
M  END
>  <Energy>  (159) 
269.33336632291031

>  <compound_id>  (159) 
4859

>  <target_id>  (159) 
1

>  <reference_id>  (159) 
94

>  <inspiration_ids>  (159) 
[94, 76]

>  <energy_score>  (159) 
243.81546647046957

>  <distance_score>  (159) 
16.654781117199615

>  <path>  (159) 
/opt/xchem-fragalysis-2/maxwin/BulkDock/SCRATCH/511018/C4859-P94/C4859-P94.minimised.mol

>  <scratch_subdir>  (159) 
/opt/xchem-fragalysis-2/maxwin/BulkDock/SCRATCH/511018/C4859-P94

>  <fragmenstein_runtime>  (159) 
31.496268033981323

>  <fragmenstein_outcome>  (159) 
too moved

>  <fragmenstein_mode>  (159) 
expansion

>  <fragmenstein_error>  (159) 


$$$$
C4859-P76
     RDKit          3D

 47 50  0  0  0  0  0  0  0  0999 V2000
   -4.5193  -10.5096   23.6588 O   0  0  0  0  0  0  0  0  0  0  0  0
   -4.9108  -11.0703   22.6726 C   0  0  0  0  0  0  0  0  0  0  0  0
   -4.7161  -10.7610   21.2760 N   0  0  0  0  0  0  0  0  0  0  0  0
   -4.0556   -9.5994   20.6139 C   0  0  0  0  0  0  0  0  0  0  0  0
   -2.4952   -9.4130   20.6649 C   0  0  0  0  0  0  0  0  0  0  0  0
   -2.0426   -8.1430   19.9745 C   0  0  0  0  0  0  0  0  0  0  0  0
   -1.6458   -7.9709   18.6642 C   0  0  0  0  0  0  0  0  0  0  0  0
   -1.2959   -6.6205   18.3764 C   0  0  0  0  0  0  0  0  0  0  0  0
   -1.4408   -5.8058   19.4765 C   0  0  0  0  0  0  0  0  0  0  0  0
   -1.9933   -6.6676   20.8456 S   0  0  0  0  0  0  0  0  0  0  0  0
   -5.9116  -12.3205   22.9219 C   0  0  0  0  0  0  0  0  0  0  0  0
   -5.9097  -12.7140   24.4253 C   0  0  0  0  0  0  0  0  0  0  0  0
   -6.2653  -14.1905   24.7823 C   0  0  0  0  0  0  0  0  0  0  0  0
   -7.3178  -14.7707   23.9216 N   0  0  0  0  0  0  0  0  0  0  0  0
   -8.1888  -15.8485   24.3169 C   0  0  0  0  0  0  0  0  0  0  0  0
   -8.8114  -16.6835   23.4741 N   0  0  0  0  0  0  0  0  0  0  0  0
   -9.4473  -17.7140   24.1619 C   0  0  0  0  0  0  0  0  0  0  0  0
  -10.1144  -19.2945   23.4792 C   0  0  0  0  0  0  0  0  0  0  0  0
  -10.7592  -20.4950   24.7561 C   0  0  0  0  0  0  0  0  0  0  0  0
  -10.0321  -20.4907   26.6702 C   0  0  0  0  0  0  0  0  0  0  0  0
   -9.4622  -18.5295   27.2666 C   0  0  0  0  0  0  0  0  0  0  0  0
   -9.3012  -17.2848   25.8820 C   0  0  0  0  0  0  0  0  0  0  0  0
   -8.5150  -16.1189   25.6800 N   0  0  0  0  0  0  0  0  0  0  0  0
   -6.9768  -14.6183   22.4615 C   0  0  0  0  0  0  0  0  0  0  0  0
   -5.7932  -13.6258   22.1321 C   0  0  0  0  0  0  0  0  0  0  0  0
   -5.2616  -11.4047   20.7166 H   0  0  0  0  0  0  0  0  0  0  0  0
   -4.5234   -8.7147   21.0623 H   0  0  0  0  0  0  0  0  0  0  0  0
   -4.3749   -9.6367   19.5658 H   0  0  0  0  0  0  0  0  0  0  0  0
   -2.1656   -9.4019   21.7082 H   0  0  0  0  0  0  0  0  0  0  0  0
   -2.0373  -10.2904   20.1991 H   0  0  0  0  0  0  0  0  0  0  0  0
   -1.5863   -8.7839   17.9508 H   0  0  0  0  0  0  0  0  0  0  0  0
   -0.9452   -6.2682   17.4147 H   0  0  0  0  0  0  0  0  0  0  0  0
   -1.2420   -4.7456   19.5474 H   0  0  0  0  0  0  0  0  0  0  0  0
   -6.9030  -11.8997   22.6967 H   0  0  0  0  0  0  0  0  0  0  0  0
   -4.9358  -12.5098   24.8866 H   0  0  0  0  0  0  0  0  0  0  0  0
   -6.6253  -12.0578   24.9390 H   0  0  0  0  0  0  0  0  0  0  0  0
   -6.5665  -14.2135   25.8351 H   0  0  0  0  0  0  0  0  0  0  0  0
   -5.3644  -14.8119   24.7003 H   0  0  0  0  0  0  0  0  0  0  0  0
  -10.3973  -19.3013   22.4321 H   0  0  0  0  0  0  0  0  0  0  0  0
  -11.6225  -21.1229   24.4450 H   0  0  0  0  0  0  0  0  0  0  0  0
  -10.5158  -21.2313   27.4190 H   0  0  0  0  0  0  0  0  0  0  0  0
   -8.8123  -18.2718   28.1093 H   0  0  0  0  0  0  0  0  0  0  0  0
   -8.0998  -15.6058   26.4368 H   0  0  0  0  0  0  0  0  0  0  0  0
   -7.8780  -14.2641   21.9467 H   0  0  0  0  0  0  0  0  0  0  0  0
   -6.7185  -15.5992   22.0440 H   0  0  0  0  0  0  0  0  0  0  0  0
   -4.8580  -14.1426   22.3659 H   0  0  0  0  0  0  0  0  0  0  0  0
   -5.7850  -13.4396   21.0533 H   0  0  0  0  0  0  0  0  0  0  0  0
  1  2  2  0
  2  3  1  0
  3  4  1  0
  4  5  1  0
  5  6  1  0
  6  7  2  0
  7  8  1  0
  8  9  2  0
  9 10  1  0
  2 11  1  0
 11 12  1  0
 12 13  1  0
 13 14  1  0
 14 15  1  0
 15 16  2  0
 16 17  1  0
 17 18  2  0
 18 19  1  0
 19 20  2  0
 20 21  1  0
 21 22  2  0
 22 23  1  0
 14 24  1  0
 24 25  1  0
 10  6  1  0
 25 11  1  0
 23 15  1  0
 22 17  1  0
  3 26  1  0
  4 27  1  0
  4 28  1  0
  5 29  1  0
  5 30  1  0
  7 31  1  0
  8 32  1  0
  9 33  1  0
 11 34  1  0
 12 35  1  0
 12 36  1  0
 13 37  1  0
 13 38  1  0
 18 39  1  0
 19 40  1  0
 20 41  1  0
 21 42  1  0
 23 43  1  0
 24 44  1  0
 24 45  1  0
 25 46  1  0
 25 47  1  0
M  END
>  <Energy>  (160) 
570.01815732664772

>  <compound_id>  (160) 
4859

>  <target_id>  (160) 
1

>  <reference_id>  (160) 
76

>  <inspiration_ids>  (160) 
[94, 76]

>  <energy_score>  (160) 
544.5002574742123

>  <distance_score>  (160) 
18.482209834463386

>  <path>  (160) 
/opt/xchem-fragalysis-2/maxwin/BulkDock/SCRATCH/511018/C4859-P76/C4859-P76.minimised.mol

>  <scratch_subdir>  (160) 
/opt/xchem-fragalysis-2/maxwin/BulkDock/SCRATCH/511018/C4859-P76

>  <fragmenstein_runtime>  (160) 
19.124014377593994

>  <fragmenstein_outcome>  (160) 
too moved

>  <fragmenstein_mode>  (160) 
expansion

>  <fragmenstein_error>  (160) 


$$$$
C4860-P94
     RDKit          3D

 44 47  0  0  0  0  0  0  0  0999 V2000
    5.2457   -7.1373   23.6482 O   0  0  0  0  0  0  0  0  0  0  0  0
    6.4142   -7.4210   23.7980 C   0  0  0  0  0  0  0  0  0  0  0  0
    7.7910   -6.4154   23.2622 N   0  0  0  0  0  0  0  0  0  0  0  0
    7.8788   -4.7251   22.1916 C   0  0  0  0  0  0  0  0  0  0  0  0
    9.2769   -4.2812   20.5790 C   0  0  0  0  0  0  0  0  0  0  0  0
   10.3918   -5.5497   20.1130 C   0  0  0  0  0  0  0  0  0  0  0  0
   12.0370   -5.4742   20.0496 C   0  0  0  0  0  0  0  0  0  0  0  0
   12.4820   -5.2545   21.2833 C   0  0  0  0  0  0  0  0  0  0  0  0
   11.6110   -3.8334   21.1647 S   0  0  0  0  0  0  0  0  0  0  0  0
    6.6257   -9.3807   24.5985 C   0  0  0  0  0  0  0  0  0  0  0  0
    5.8858  -10.8418   23.3618 C   0  0  0  0  0  0  0  0  0  0  0  0
    4.1652  -11.6836   22.6597 C   0  0  0  0  0  0  0  0  0  0  0  0
    3.7168  -12.8112   24.1588 N   0  0  0  0  0  0  0  0  0  0  0  0
    1.9765  -13.1635   24.4540 C   0  0  0  0  0  0  0  0  0  0  0  0
    0.9894  -14.0691   23.6898 N   0  0  0  0  0  0  0  0  0  0  0  0
   -0.6504  -14.4321   24.1402 C   0  0  0  0  0  0  0  0  0  0  0  0
   -1.7602  -15.5132   23.5141 C   0  0  0  0  0  0  0  0  0  0  0  0
   -2.9720  -15.9492   24.0910 C   0  0  0  0  0  0  0  0  0  0  0  0
   -3.3053  -15.4083   25.3025 C   0  0  0  0  0  0  0  0  0  0  0  0
   -2.4092  -14.4827   25.9172 C   0  0  0  0  0  0  0  0  0  0  0  0
   -1.0123  -13.7597   25.3237 C   0  0  0  0  0  0  0  0  0  0  0  0
    0.8310  -13.4894   25.8131 N   0  0  0  0  0  0  0  0  0  0  0  0
    5.3968  -12.4470   25.3212 C   0  0  0  0  0  0  0  0  0  0  0  0
    6.5473  -10.8789   25.7381 C   0  0  0  0  0  0  0  0  0  0  0  0
    8.6255   -6.8212   23.5740 H   0  0  0  0  0  0  0  0  0  0  0  0
    7.3144   -3.7466   22.3156 H   0  0  0  0  0  0  0  0  0  0  0  0
    8.1213   -4.2792   23.2004 H   0  0  0  0  0  0  0  0  0  0  0  0
    9.9751   -5.8108   19.1779 H   0  0  0  0  0  0  0  0  0  0  0  0
   12.6673   -5.5032   19.1720 H   0  0  0  0  0  0  0  0  0  0  0  0
   13.4765   -5.2835   21.7046 H   0  0  0  0  0  0  0  0  0  0  0  0
    7.7207   -9.4482   24.4517 H   0  0  0  0  0  0  0  0  0  0  0  0
    6.3918  -10.8752   22.4186 H   0  0  0  0  0  0  0  0  0  0  0  0
    6.5857  -11.6101   23.6902 H   0  0  0  0  0  0  0  0  0  0  0  0
    4.1173  -12.2608   21.7223 H   0  0  0  0  0  0  0  0  0  0  0  0
    3.4395  -10.9131   22.6926 H   0  0  0  0  0  0  0  0  0  0  0  0
   -1.5094  -15.8880   22.5135 H   0  0  0  0  0  0  0  0  0  0  0  0
   -3.5951  -16.6895   23.6025 H   0  0  0  0  0  0  0  0  0  0  0  0
   -4.1671  -15.7742   25.8553 H   0  0  0  0  0  0  0  0  0  0  0  0
   -2.5960  -14.5183   27.0070 H   0  0  0  0  0  0  0  0  0  0  0  0
    1.0537  -12.7489   26.4165 H   0  0  0  0  0  0  0  0  0  0  0  0
    6.3227  -12.8534   24.9214 H   0  0  0  0  0  0  0  0  0  0  0  0
    5.3655  -13.1276   26.1896 H   0  0  0  0  0  0  0  0  0  0  0  0
    7.5645  -11.2963   25.7507 H   0  0  0  0  0  0  0  0  0  0  0  0
    6.3108  -10.5381   26.7595 H   0  0  0  0  0  0  0  0  0  0  0  0
  1  2  2  0
  2  3  1  0
  3  4  1  0
  4  5  1  0
  5  6  2  0
  6  7  1  0
  7  8  2  0
  8  9  1  0
  2 10  1  0
 10 11  1  0
 11 12  1  0
 12 13  1  0
 13 14  1  0
 14 15  2  0
 15 16  1  0
 16 17  2  0
 17 18  1  0
 18 19  2  0
 19 20  1  0
 20 21  2  0
 21 22  1  0
 13 23  1  0
 23 24  1  0
  9  5  1  0
 24 10  1  0
 22 14  1  0
 21 16  1  0
  3 25  1  0
  4 26  1  0
  4 27  1  0
  6 28  1  0
  7 29  1  0
  8 30  1  0
 10 31  1  0
 11 32  1  0
 11 33  1  0
 12 34  1  0
 12 35  1  0
 17 36  1  0
 18 37  1  0
 19 38  1  0
 20 39  1  0
 22 40  1  0
 23 41  1  0
 23 42  1  0
 24 43  1  0
 24 44  1  0
M  END
>  <Energy>  (161) 
1483.8186954943505

>  <compound_id>  (161) 
4860

>  <target_id>  (161) 
1

>  <reference_id>  (161) 
94

>  <inspiration_ids>  (161) 
[94, 76]

>  <energy_score>  (161) 
1475.4702066985908

>  <distance_score>  (161) 
13.958453536186774

>  <path>  (161) 
/opt/xchem-fragalysis-2/maxwin/BulkDock/SCRATCH/511018/C4860-P94/C4860-P94.minimised.mol

>  <scratch_subdir>  (161) 
/opt/xchem-fragalysis-2/maxwin/BulkDock/SCRATCH/511018/C4860-P94

>  <fragmenstein_runtime>  (161) 
31.432404279708862

>  <fragmenstein_outcome>  (161) 
too moved

>  <fragmenstein_mode>  (161) 
expansion

>  <fragmenstein_error>  (161) 


$$$$
C4860-P76
     RDKit          3D

 44 47  0  0  0  0  0  0  0  0999 V2000
    4.7847  -12.7821   19.6804 O   0  0  0  0  0  0  0  0  0  0  0  0
    4.9964  -12.1737   20.7156 C   0  0  0  0  0  0  0  0  0  0  0  0
    6.2907  -10.8906   20.8328 N   0  0  0  0  0  0  0  0  0  0  0  0
    7.6107   -9.9896   19.4055 C   0  0  0  0  0  0  0  0  0  0  0  0
    9.1767   -8.3909   19.7115 C   0  0  0  0  0  0  0  0  0  0  0  0
   10.4575   -8.2831   20.8901 C   0  0  0  0  0  0  0  0  0  0  0  0
   11.8033   -7.2097   21.0730 C   0  0  0  0  0  0  0  0  0  0  0  0
   11.6295   -5.9512   20.3552 C   0  0  0  0  0  0  0  0  0  0  0  0
    9.6461   -5.9439   19.3899 S   0  0  0  0  0  0  0  0  0  0  0  0
    3.6642  -12.5372   22.4035 C   0  0  0  0  0  0  0  0  0  0  0  0
    3.5282  -14.0657   23.8113 C   0  0  0  0  0  0  0  0  0  0  0  0
    3.7926  -14.0677   25.6603 C   0  0  0  0  0  0  0  0  0  0  0  0
    2.3389  -13.6481   26.6549 N   0  0  0  0  0  0  0  0  0  0  0  0
    1.7619  -14.0722   27.9269 C   0  0  0  0  0  0  0  0  0  0  0  0
    2.0508  -15.1021   28.7260 N   0  0  0  0  0  0  0  0  0  0  0  0
    0.8715  -15.4509   29.4050 C   0  0  0  0  0  0  0  0  0  0  0  0
    0.5171  -16.6262   30.1091 C   0  0  0  0  0  0  0  0  0  0  0  0
   -0.8187  -16.8232   30.5127 C   0  0  0  0  0  0  0  0  0  0  0  0
   -1.7879  -15.8513   30.2586 C   0  0  0  0  0  0  0  0  0  0  0  0
   -1.4522  -14.6570   29.5994 C   0  0  0  0  0  0  0  0  0  0  0  0
   -0.1158  -14.4995   29.1769 C   0  0  0  0  0  0  0  0  0  0  0  0
    0.5221  -13.5694   28.3618 N   0  0  0  0  0  0  0  0  0  0  0  0
    1.5498  -12.8229   25.5977 C   0  0  0  0  0  0  0  0  0  0  0  0
    2.4117  -12.1800   23.9124 C   0  0  0  0  0  0  0  0  0  0  0  0
    6.3475  -10.5922   21.7707 H   0  0  0  0  0  0  0  0  0  0  0  0
    8.0311  -10.8337   18.8367 H   0  0  0  0  0  0  0  0  0  0  0  0
    6.9175   -9.4969   18.7178 H   0  0  0  0  0  0  0  0  0  0  0  0
   10.5104   -8.7734   21.8610 H   0  0  0  0  0  0  0  0  0  0  0  0
   12.5578   -7.4023   21.8391 H   0  0  0  0  0  0  0  0  0  0  0  0
   12.1497   -5.0050   20.2920 H   0  0  0  0  0  0  0  0  0  0  0  0
    3.2355  -13.1919   21.6511 H   0  0  0  0  0  0  0  0  0  0  0  0
    4.1865  -14.9575   23.6798 H   0  0  0  0  0  0  0  0  0  0  0  0
    2.6768  -14.6166   23.4644 H   0  0  0  0  0  0  0  0  0  0  0  0
    4.1095  -15.0261   25.9987 H   0  0  0  0  0  0  0  0  0  0  0  0
    4.6974  -13.5051   25.9067 H   0  0  0  0  0  0  0  0  0  0  0  0
    1.2672  -17.3927   30.2720 H   0  0  0  0  0  0  0  0  0  0  0  0
   -1.0925  -17.7428   31.0242 H   0  0  0  0  0  0  0  0  0  0  0  0
   -2.8146  -16.0202   30.5764 H   0  0  0  0  0  0  0  0  0  0  0  0
   -2.2073  -13.9112   29.3764 H   0  0  0  0  0  0  0  0  0  0  0  0
    0.0544  -12.8126   27.8984 H   0  0  0  0  0  0  0  0  0  0  0  0
    0.8064  -13.5699   25.4569 H   0  0  0  0  0  0  0  0  0  0  0  0
    1.0635  -11.9949   26.1503 H   0  0  0  0  0  0  0  0  0  0  0  0
    1.6240  -11.6867   23.3962 H   0  0  0  0  0  0  0  0  0  0  0  0
    2.0431  -13.1419   23.9032 H   0  0  0  0  0  0  0  0  0  0  0  0
  1  2  2  0
  2  3  1  0
  3  4  1  0
  4  5  1  0
  5  6  2  0
  6  7  1  0
  7  8  2  0
  8  9  1  0
  2 10  1  0
 10 11  1  0
 11 12  1  0
 12 13  1  0
 13 14  1  0
 14 15  2  0
 15 16  1  0
 16 17  2  0
 17 18  1  0
 18 19  2  0
 19 20  1  0
 20 21  2  0
 21 22  1  0
 13 23  1  0
 23 24  1  0
  9  5  1  0
 24 10  1  0
 22 14  1  0
 21 16  1  0
  3 25  1  0
  4 26  1  0
  4 27  1  0
  6 28  1  0
  7 29  1  0
  8 30  1  0
 10 31  1  0
 11 32  1  0
 11 33  1  0
 12 34  1  0
 12 35  1  0
 17 36  1  0
 18 37  1  0
 19 38  1  0
 20 39  1  0
 22 40  1  0
 23 41  1  0
 23 42  1  0
 24 43  1  0
 24 44  1  0
M  END
>  <Energy>  (162) 
1233.8476671378148

>  <compound_id>  (162) 
4860

>  <target_id>  (162) 
1

>  <reference_id>  (162) 
76

>  <inspiration_ids>  (162) 
[94, 76]

>  <energy_score>  (162) 
1225.499178342035

>  <distance_score>  (162) 
14.613534467286529

>  <path>  (162) 
/opt/xchem-fragalysis-2/maxwin/BulkDock/SCRATCH/511018/C4860-P76/C4860-P76.minimised.mol

>  <scratch_subdir>  (162) 
/opt/xchem-fragalysis-2/maxwin/BulkDock/SCRATCH/511018/C4860-P76

>  <fragmenstein_runtime>  (162) 
21.512301445007324

>  <fragmenstein_outcome>  (162) 
too moved

>  <fragmenstein_mode>  (162) 
expansion

>  <fragmenstein_error>  (162) 


$$$$
C4861-P94
     RDKit          3D

 50 53  0  0  0  0  0  0  0  0999 V2000
    3.9309   -7.2503   23.9275 O   0  0  0  0  0  0  0  0  0  0  0  0
    4.8702   -7.9376   23.6066 C   0  0  0  0  0  0  0  0  0  0  0  0
    6.6562   -6.8016   23.3533 C   0  0  0  0  0  0  0  0  0  0  0  0
    7.7743   -5.4077   22.1615 C   0  0  0  0  0  0  0  0  0  0  0  0
    9.2422   -4.9420   20.5456 C   0  0  0  0  0  0  0  0  0  0  0  0
   11.3120   -5.2227   20.5903 C   0  0  0  0  0  0  0  0  0  0  0  0
   12.4165   -4.2508   20.5300 C   0  0  0  0  0  0  0  0  0  0  0  0
   13.8014   -4.5696   20.5419 C   0  0  0  0  0  0  0  0  0  0  0  0
   14.0324   -5.8456   20.9074 C   0  0  0  0  0  0  0  0  0  0  0  0
   12.6255   -6.6952   21.2649 S   0  0  0  0  0  0  0  0  0  0  0  0
    4.7186   -9.8684   23.1687 N   0  0  0  0  0  0  0  0  0  0  0  0
    3.1800  -11.0506   22.9604 C   0  0  0  0  0  0  0  0  0  0  0  0
    2.1798  -12.0519   24.2180 C   0  0  0  0  0  0  0  0  0  0  0  0
    1.6121  -13.2268   25.1366 C   0  0  0  0  0  0  0  0  0  0  0  0
    0.9291  -14.0550   23.9362 N   0  0  0  0  0  0  0  0  0  0  0  0
   -0.7382  -14.5326   24.3841 C   0  0  0  0  0  0  0  0  0  0  0  0
   -1.7407  -15.4590   24.1382 N   0  0  0  0  0  0  0  0  0  0  0  0
   -2.7065  -15.9773   25.2316 C   0  0  0  0  0  0  0  0  0  0  0  0
   -3.6228  -17.0563   25.4628 C   0  0  0  0  0  0  0  0  0  0  0  0
   -4.1391  -17.2823   26.7535 C   0  0  0  0  0  0  0  0  0  0  0  0
   -3.8033  -16.4369   27.8068 C   0  0  0  0  0  0  0  0  0  0  0  0
   -2.9882  -15.3064   27.6010 C   0  0  0  0  0  0  0  0  0  0  0  0
   -2.4667  -15.0903   26.2914 C   0  0  0  0  0  0  0  0  0  0  0  0
   -1.7143  -14.0457   25.5127 N   0  0  0  0  0  0  0  0  0  0  0  0
    2.7375  -14.1679   23.3442 C   0  0  0  0  0  0  0  0  0  0  0  0
    3.3491  -12.6267   22.5277 C   0  0  0  0  0  0  0  0  0  0  0  0
    6.3766   -6.0095   24.0434 H   0  0  0  0  0  0  0  0  0  0  0  0
    7.3949   -7.2977   24.0014 H   0  0  0  0  0  0  0  0  0  0  0  0
    7.5676   -4.4590   22.6993 H   0  0  0  0  0  0  0  0  0  0  0  0
    7.1345   -5.9405   21.4885 H   0  0  0  0  0  0  0  0  0  0  0  0
    8.9457   -3.9307   20.3422 H   0  0  0  0  0  0  0  0  0  0  0  0
    9.4915   -5.5406   19.6428 H   0  0  0  0  0  0  0  0  0  0  0  0
   12.2316   -3.2226   20.3458 H   0  0  0  0  0  0  0  0  0  0  0  0
   14.5885   -3.8461   20.3660 H   0  0  0  0  0  0  0  0  0  0  0  0
   14.9948   -6.3201   21.0444 H   0  0  0  0  0  0  0  0  0  0  0  0
    5.6345  -10.2555   23.0138 H   0  0  0  0  0  0  0  0  0  0  0  0
    4.0200  -11.2943   22.2579 H   0  0  0  0  0  0  0  0  0  0  0  0
    1.8258  -11.5077   25.0221 H   0  0  0  0  0  0  0  0  0  0  0  0
    3.0897  -12.5759   24.3473 H   0  0  0  0  0  0  0  0  0  0  0  0
    0.9501  -12.9877   25.9847 H   0  0  0  0  0  0  0  0  0  0  0  0
    2.2660  -13.7399   25.8605 H   0  0  0  0  0  0  0  0  0  0  0  0
   -3.9473  -17.7409   24.6935 H   0  0  0  0  0  0  0  0  0  0  0  0
   -4.8079  -18.1211   26.9297 H   0  0  0  0  0  0  0  0  0  0  0  0
   -4.2158  -16.6202   28.7979 H   0  0  0  0  0  0  0  0  0  0  0  0
   -2.8210  -14.6134   28.4146 H   0  0  0  0  0  0  0  0  0  0  0  0
   -2.0356  -13.0946   25.4483 H   0  0  0  0  0  0  0  0  0  0  0  0
    3.4533  -14.2176   24.2034 H   0  0  0  0  0  0  0  0  0  0  0  0
    3.1594  -15.0688   22.9733 H   0  0  0  0  0  0  0  0  0  0  0  0
    2.4161  -12.2495   22.3587 H   0  0  0  0  0  0  0  0  0  0  0  0
    3.6721  -12.8786   21.4889 H   0  0  0  0  0  0  0  0  0  0  0  0
  1  2  2  0
  2  3  1  0
  3  4  1  0
  4  5  1  0
  5  6  1  0
  6  7  2  0
  7  8  1  0
  8  9  2  0
  9 10  1  0
  2 11  1  0
 11 12  1  0
 12 13  1  0
 13 14  1  0
 14 15  1  0
 15 16  1  0
 16 17  2  0
 17 18  1  0
 18 19  2  0
 19 20  1  0
 20 21  2  0
 21 22  1  0
 22 23  2  0
 23 24  1  0
 15 25  1  0
 25 26  1  0
 10  6  1  0
 26 12  1  0
 24 16  1  0
 23 18  1  0
  3 27  1  0
  3 28  1  0
  4 29  1  0
  4 30  1  0
  5 31  1  0
  5 32  1  0
  7 33  1  0
  8 34  1  0
  9 35  1  0
 11 36  1  0
 12 37  1  0
 13 38  1  0
 13 39  1  0
 14 40  1  0
 14 41  1  0
 19 42  1  0
 20 43  1  0
 21 44  1  0
 22 45  1  0
 24 46  1  0
 25 47  1  0
 25 48  1  0
 26 49  1  0
 26 50  1  0
M  END
>  <Energy>  (163) 
1406.8936762322444

>  <compound_id>  (163) 
4861

>  <target_id>  (163) 
1

>  <reference_id>  (163) 
94

>  <inspiration_ids>  (163) 
[94, 76]

>  <energy_score>  (163) 
1387.5919249054168

>  <distance_score>  (163) 
12.589610777326007

>  <path>  (163) 
/opt/xchem-fragalysis-2/maxwin/BulkDock/SCRATCH/511018/C4861-P94/C4861-P94.minimised.mol

>  <scratch_subdir>  (163) 
/opt/xchem-fragalysis-2/maxwin/BulkDock/SCRATCH/511018/C4861-P94

>  <fragmenstein_runtime>  (163) 
25.926705598831177

>  <fragmenstein_outcome>  (163) 
too moved

>  <fragmenstein_mode>  (163) 
expansion

>  <fragmenstein_error>  (163) 


$$$$
C4861-P76
     RDKit          3D

 50 53  0  0  0  0  0  0  0  0999 V2000
    4.1708   -7.0693   24.0291 O   0  0  0  0  0  0  0  0  0  0  0  0
    4.9514   -7.9715   24.0570 C   0  0  0  0  0  0  0  0  0  0  0  0
    6.5401   -7.7794   24.8376 C   0  0  0  0  0  0  0  0  0  0  0  0
    7.2146   -6.4121   24.4269 C   0  0  0  0  0  0  0  0  0  0  0  0
    8.2941   -5.8848   25.3912 C   0  0  0  0  0  0  0  0  0  0  0  0
    8.7923   -4.4759   25.1191 C   0  0  0  0  0  0  0  0  0  0  0  0
    8.0868   -3.3418   24.7544 C   0  0  0  0  0  0  0  0  0  0  0  0
    8.9217   -2.1941   24.5972 C   0  0  0  0  0  0  0  0  0  0  0  0
   10.2474   -2.4823   24.8306 C   0  0  0  0  0  0  0  0  0  0  0  0
   10.4693   -4.1072   25.3131 S   0  0  0  0  0  0  0  0  0  0  0  0
    4.6382   -9.6802   23.4597 N   0  0  0  0  0  0  0  0  0  0  0  0
    3.0965  -10.4792   22.8103 C   0  0  0  0  0  0  0  0  0  0  0  0
    2.6382  -11.9723   23.4093 C   0  0  0  0  0  0  0  0  0  0  0  0
    1.7754  -12.9223   24.1253 C   0  0  0  0  0  0  0  0  0  0  0  0
    0.0993  -13.0474   23.0440 N   0  0  0  0  0  0  0  0  0  0  0  0
   -0.8136  -14.0812   24.2723 C   0  0  0  0  0  0  0  0  0  0  0  0
   -1.7059  -15.1563   24.2358 N   0  0  0  0  0  0  0  0  0  0  0  0
   -2.8542  -15.1989   25.2163 C   0  0  0  0  0  0  0  0  0  0  0  0
   -3.9324  -16.1111   25.3835 C   0  0  0  0  0  0  0  0  0  0  0  0
   -4.7887  -15.9973   26.4870 C   0  0  0  0  0  0  0  0  0  0  0  0
   -4.5941  -14.9739   27.4069 C   0  0  0  0  0  0  0  0  0  0  0  0
   -3.5583  -14.0361   27.2397 C   0  0  0  0  0  0  0  0  0  0  0  0
   -2.7100  -14.1739   26.1257 C   0  0  0  0  0  0  0  0  0  0  0  0
   -1.6002  -13.4498   25.6720 N   0  0  0  0  0  0  0  0  0  0  0  0
    0.1057  -11.0943   22.4305 C   0  0  0  0  0  0  0  0  0  0  0  0
    1.3964   -9.7714   21.6701 C   0  0  0  0  0  0  0  0  0  0  0  0
    6.3641   -7.8620   25.9137 H   0  0  0  0  0  0  0  0  0  0  0  0
    7.2455   -8.6077   24.6836 H   0  0  0  0  0  0  0  0  0  0  0  0
    7.6018   -6.5029   23.4355 H   0  0  0  0  0  0  0  0  0  0  0  0
    6.4681   -5.6527   24.2427 H   0  0  0  0  0  0  0  0  0  0  0  0
    7.8913   -5.8808   26.4111 H   0  0  0  0  0  0  0  0  0  0  0  0
    9.1281   -6.5971   25.4076 H   0  0  0  0  0  0  0  0  0  0  0  0
    7.0132   -3.3296   24.6114 H   0  0  0  0  0  0  0  0  0  0  0  0
    8.5654   -1.2075   24.3252 H   0  0  0  0  0  0  0  0  0  0  0  0
   11.0952   -1.8113   24.7686 H   0  0  0  0  0  0  0  0  0  0  0  0
    5.4979  -10.2278   23.5222 H   0  0  0  0  0  0  0  0  0  0  0  0
    3.8461  -11.0687   22.1920 H   0  0  0  0  0  0  0  0  0  0  0  0
    2.3626  -11.5248   24.3038 H   0  0  0  0  0  0  0  0  0  0  0  0
    3.5217  -12.5363   23.3750 H   0  0  0  0  0  0  0  0  0  0  0  0
    2.3394  -13.8169   23.7667 H   0  0  0  0  0  0  0  0  0  0  0  0
    1.5938  -12.9246   25.2165 H   0  0  0  0  0  0  0  0  0  0  0  0
   -4.1100  -16.9074   24.6768 H   0  0  0  0  0  0  0  0  0  0  0  0
   -5.6014  -16.7053   26.6212 H   0  0  0  0  0  0  0  0  0  0  0  0
   -5.2574  -14.8864   28.2651 H   0  0  0  0  0  0  0  0  0  0  0  0
   -3.4203  -13.2318   27.9555 H   0  0  0  0  0  0  0  0  0  0  0  0
   -1.0991  -12.7265   26.1539 H   0  0  0  0  0  0  0  0  0  0  0  0
   -0.7478  -10.9902   21.6731 H   0  0  0  0  0  0  0  0  0  0  0  0
   -0.4271  -10.3284   22.9288 H   0  0  0  0  0  0  0  0  0  0  0  0
    1.0560   -8.7393   21.9876 H   0  0  0  0  0  0  0  0  0  0  0  0
    1.3520   -9.5950   20.6045 H   0  0  0  0  0  0  0  0  0  0  0  0
  1  2  2  0
  2  3  1  0
  3  4  1  0
  4  5  1  0
  5  6  1  0
  6  7  2  0
  7  8  1  0
  8  9  2  0
  9 10  1  0
  2 11  1  0
 11 12  1  0
 12 13  1  0
 13 14  1  0
 14 15  1  0
 15 16  1  0
 16 17  2  0
 17 18  1  0
 18 19  2  0
 19 20  1  0
 20 21  2  0
 21 22  1  0
 22 23  2  0
 23 24  1  0
 15 25  1  0
 25 26  1  0
 10  6  1  0
 26 12  1  0
 24 16  1  0
 23 18  1  0
  3 27  1  0
  3 28  1  0
  4 29  1  0
  4 30  1  0
  5 31  1  0
  5 32  1  0
  7 33  1  0
  8 34  1  0
  9 35  1  0
 11 36  1  0
 12 37  1  0
 13 38  1  0
 13 39  1  0
 14 40  1  0
 14 41  1  0
 19 42  1  0
 20 43  1  0
 21 44  1  0
 22 45  1  0
 24 46  1  0
 25 47  1  0
 25 48  1  0
 26 49  1  0
 26 50  1  0
M  END
>  <Energy>  (164) 
723.89324197466715

>  <compound_id>  (164) 
4861

>  <target_id>  (164) 
1

>  <reference_id>  (164) 
76

>  <inspiration_ids>  (164) 
[94, 76]

>  <energy_score>  (164) 
704.5914906478422

>  <distance_score>  (164) 
14.01596025562857

>  <path>  (164) 
/opt/xchem-fragalysis-2/maxwin/BulkDock/SCRATCH/511018/C4861-P76/C4861-P76.minimised.mol

>  <scratch_subdir>  (164) 
/opt/xchem-fragalysis-2/maxwin/BulkDock/SCRATCH/511018/C4861-P76

>  <fragmenstein_runtime>  (164) 
19.41753888130188

>  <fragmenstein_outcome>  (164) 
too moved

>  <fragmenstein_mode>  (164) 
expansion

>  <fragmenstein_error>  (164) 


$$$$
C4862-P94
     RDKit          3D

 64 67  0  0  0  0  0  0  0  0999 V2000
   12.5014   -3.5198   15.7916 C   0  0  0  0  0  0  0  0  0  0  0  0
   11.3631   -4.4379   16.2512 C   0  0  0  0  0  0  0  0  0  0  0  0
   11.2392   -6.3493   16.0696 C   0  0  0  0  0  0  0  0  0  0  0  0
   12.6823   -6.3767   16.2422 C   0  0  0  0  0  0  0  0  0  0  0  0
    9.7853   -7.5869   15.4012 N   0  0  0  0  0  0  0  0  0  0  0  0
    9.4548   -9.4690   16.2993 C   0  0  0  0  0  0  0  0  0  0  0  0
    8.3039  -10.4358   17.8919 C   0  0  0  0  0  0  0  0  0  0  0  0
    6.4250  -10.9209   18.7394 N   0  0  0  0  0  0  0  0  0  0  0  0
    5.8899  -12.1668   20.1169 C   0  0  0  0  0  0  0  0  0  0  0  0
    6.7719  -12.7376   20.6839 O   0  0  0  0  0  0  0  0  0  0  0  0
    4.0064  -12.8388   20.8811 C   0  0  0  0  0  0  0  0  0  0  0  0
    3.1712  -12.5424   22.6622 C   0  0  0  0  0  0  0  0  0  0  0  0
    2.1626  -13.2649   24.0124 C   0  0  0  0  0  0  0  0  0  0  0  0
    0.4976  -14.2072   23.7906 N   0  0  0  0  0  0  0  0  0  0  0  0
   -1.1005  -14.6110   24.7057 C   0  0  0  0  0  0  0  0  0  0  0  0
   -1.9170  -14.6579   26.1642 N   0  0  0  0  0  0  0  0  0  0  0  0
   -2.3128  -16.1929   27.1263 C   0  0  0  0  0  0  0  0  0  0  0  0
   -3.2928  -16.8307   28.0677 C   0  0  0  0  0  0  0  0  0  0  0  0
   -3.5930  -18.2968   28.0760 C   0  0  0  0  0  0  0  0  0  0  0  0
   -2.5675  -19.0235   27.4710 C   0  0  0  0  0  0  0  0  0  0  0  0
   -1.8410  -18.2856   26.5004 C   0  0  0  0  0  0  0  0  0  0  0  0
   -2.4653  -17.0591   26.0025 C   0  0  0  0  0  0  0  0  0  0  0  0
   -2.2291  -15.8650   24.7251 N   0  0  0  0  0  0  0  0  0  0  0  0
    0.6690  -14.8439   22.0317 C   0  0  0  0  0  0  0  0  0  0  0  0
    2.5612  -14.3573   21.0093 C   0  0  0  0  0  0  0  0  0  0  0  0
   10.9650   -6.4546   14.3578 C   0  0  0  0  0  0  0  0  0  0  0  0
   11.5692   -6.0174   12.3613 C   0  0  0  0  0  0  0  0  0  0  0  0
   12.1361   -4.8269   11.9345 C   0  0  0  0  0  0  0  0  0  0  0  0
   13.1826   -4.9438   10.8811 C   0  0  0  0  0  0  0  0  0  0  0  0
   13.0492   -5.9767   10.0231 C   0  0  0  0  0  0  0  0  0  0  0  0
   12.0680   -7.1524   10.6770 S   0  0  0  0  0  0  0  0  0  0  0  0
   12.3209   -2.5180   16.2031 H   0  0  0  0  0  0  0  0  0  0  0  0
   12.4963   -3.3913   14.7121 H   0  0  0  0  0  0  0  0  0  0  0  0
   13.4911   -3.8046   16.1533 H   0  0  0  0  0  0  0  0  0  0  0  0
   11.4097   -4.3356   17.3273 H   0  0  0  0  0  0  0  0  0  0  0  0
   10.4862   -3.9261   15.8592 H   0  0  0  0  0  0  0  0  0  0  0  0
   10.7656   -6.2486   16.9311 H   0  0  0  0  0  0  0  0  0  0  0  0
   12.7847   -7.3640   15.8816 H   0  0  0  0  0  0  0  0  0  0  0  0
   12.9759   -5.9700   17.2074 H   0  0  0  0  0  0  0  0  0  0  0  0
   13.3794   -5.7284   15.7278 H   0  0  0  0  0  0  0  0  0  0  0  0
   10.4841   -9.9006   16.3796 H   0  0  0  0  0  0  0  0  0  0  0  0
    9.2044  -10.1575   15.4682 H   0  0  0  0  0  0  0  0  0  0  0  0
    8.4000  -11.2124   17.1653 H   0  0  0  0  0  0  0  0  0  0  0  0
    9.0312  -10.9818   18.4513 H   0  0  0  0  0  0  0  0  0  0  0  0
    5.5884  -10.5710   18.2815 H   0  0  0  0  0  0  0  0  0  0  0  0
    4.2416  -11.9055   21.4063 H   0  0  0  0  0  0  0  0  0  0  0  0
    3.9486  -12.5428   23.3123 H   0  0  0  0  0  0  0  0  0  0  0  0
    2.9676  -11.5248   22.8400 H   0  0  0  0  0  0  0  0  0  0  0  0
    3.0470  -13.7892   24.4168 H   0  0  0  0  0  0  0  0  0  0  0  0
    1.9038  -12.3979   24.5797 H   0  0  0  0  0  0  0  0  0  0  0  0
   -3.6257  -16.3509   28.9759 H   0  0  0  0  0  0  0  0  0  0  0  0
   -4.2644  -18.7255   28.8152 H   0  0  0  0  0  0  0  0  0  0  0  0
   -2.3040  -20.0210   27.7919 H   0  0  0  0  0  0  0  0  0  0  0  0
   -0.7595  -18.3624   26.5417 H   0  0  0  0  0  0  0  0  0  0  0  0
   -1.5350  -16.3565   24.3311 H   0  0  0  0  0  0  0  0  0  0  0  0
    0.2397  -15.8475   21.7307 H   0  0  0  0  0  0  0  0  0  0  0  0
   -0.1919  -14.1837   22.0840 H   0  0  0  0  0  0  0  0  0  0  0  0
    2.3886  -14.7750   20.0180 H   0  0  0  0  0  0  0  0  0  0  0  0
    3.1477  -14.6448   21.9012 H   0  0  0  0  0  0  0  0  0  0  0  0
   10.6469   -5.2131   13.8893 H   0  0  0  0  0  0  0  0  0  0  0  0
   10.6122   -5.3667   14.7495 H   0  0  0  0  0  0  0  0  0  0  0  0
   12.0919   -3.9902   12.6337 H   0  0  0  0  0  0  0  0  0  0  0  0
   13.9484   -4.1884   10.7322 H   0  0  0  0  0  0  0  0  0  0  0  0
   13.6023   -6.1612    9.1143 H   0  0  0  0  0  0  0  0  0  0  0  0
  1  2  1  0
  2  3  1  0
  3  4  1  0
  3  5  1  0
  5  6  1  0
  6  7  1  0
  7  8  1  0
  8  9  1  0
  9 10  2  0
  9 11  1  0
 11 12  1  0
 12 13  1  0
 13 14  1  0
 14 15  1  0
 15 16  2  0
 16 17  1  0
 17 18  2  0
 18 19  1  0
 19 20  2  0
 20 21  1  0
 21 22  2  0
 22 23  1  0
 14 24  1  0
 24 25  1  0
  5 26  1  0
 26 27  1  0
 27 28  2  0
 28 29  1  0
 29 30  2  0
 30 31  1  0
 25 11  1  0
 31 27  1  0
 23 15  1  0
 22 17  1  0
  1 32  1  0
  1 33  1  0
  1 34  1  0
  2 35  1  0
  2 36  1  0
  3 37  1  0
  4 38  1  0
  4 39  1  0
  4 40  1  0
  6 41  1  0
  6 42  1  0
  7 43  1  0
  7 44  1  0
  8 45  1  0
 11 46  1  0
 12 47  1  0
 12 48  1  0
 13 49  1  0
 13 50  1  0
 18 51  1  0
 19 52  1  0
 20 53  1  0
 21 54  1  0
 23 55  1  0
 24 56  1  0
 24 57  1  0
 25 58  1  0
 25 59  1  0
 26 60  1  0
 26 61  1  0
 28 62  1  0
 29 63  1  0
 30 64  1  0
M  END
>  <Energy>  (165) 
2463.6122518204133

>  <compound_id>  (165) 
4862

>  <target_id>  (165) 
1

>  <reference_id>  (165) 
94

>  <inspiration_ids>  (165) 
[94, 76]

>  <energy_score>  (165) 
2381.80892667

>  <distance_score>  (165) 
10.081153169504242

>  <path>  (165) 
/opt/xchem-fragalysis-2/maxwin/BulkDock/SCRATCH/511018/C4862-P94/C4862-P94.minimised.mol

>  <scratch_subdir>  (165) 
/opt/xchem-fragalysis-2/maxwin/BulkDock/SCRATCH/511018/C4862-P94

>  <fragmenstein_runtime>  (165) 
43.318811655044556

>  <fragmenstein_outcome>  (165) 
too moved

>  <fragmenstein_mode>  (165) 
expansion

>  <fragmenstein_error>  (165) 


$$$$
C4862-P76
     RDKit          3D

 64 67  0  0  0  0  0  0  0  0999 V2000
   12.1216   -3.7146   16.9062 C   0  0  0  0  0  0  0  0  0  0  0  0
   11.0162   -4.8674   17.2873 C   0  0  0  0  0  0  0  0  0  0  0  0
   10.1329   -5.5428   19.0306 C   0  0  0  0  0  0  0  0  0  0  0  0
   12.1789   -5.1138   19.1151 C   0  0  0  0  0  0  0  0  0  0  0  0
    8.7399   -4.8738   20.4159 N   0  0  0  0  0  0  0  0  0  0  0  0
    7.2667   -5.8583   21.7903 C   0  0  0  0  0  0  0  0  0  0  0  0
    5.5711   -7.2026   22.5755 C   0  0  0  0  0  0  0  0  0  0  0  0
    4.6532   -9.0124   23.4667 N   0  0  0  0  0  0  0  0  0  0  0  0
    3.1102  -10.1928   22.9978 C   0  0  0  0  0  0  0  0  0  0  0  0
    2.3842   -9.7801   21.9535 O   0  0  0  0  0  0  0  0  0  0  0  0
    2.1296  -11.9705   23.9400 C   0  0  0  0  0  0  0  0  0  0  0  0
    1.3247  -12.1374   25.7723 C   0  0  0  0  0  0  0  0  0  0  0  0
    0.1937  -12.2214   26.8121 C   0  0  0  0  0  0  0  0  0  0  0  0
   -0.9798  -13.0032   26.5717 N   0  0  0  0  0  0  0  0  0  0  0  0
   -1.5038  -13.3080   27.8375 C   0  0  0  0  0  0  0  0  0  0  0  0
   -1.6647  -14.4005   28.5471 N   0  0  0  0  0  0  0  0  0  0  0  0
   -2.2384  -14.0588   29.8232 C   0  0  0  0  0  0  0  0  0  0  0  0
   -2.9574  -14.8039   30.8084 C   0  0  0  0  0  0  0  0  0  0  0  0
   -3.5391  -14.1908   31.9147 C   0  0  0  0  0  0  0  0  0  0  0  0
   -3.4073  -12.8243   32.0620 C   0  0  0  0  0  0  0  0  0  0  0  0
   -2.7520  -12.0511   31.0898 C   0  0  0  0  0  0  0  0  0  0  0  0
   -2.2397  -12.6923   29.9552 C   0  0  0  0  0  0  0  0  0  0  0  0
   -1.7985  -12.2499   28.7227 N   0  0  0  0  0  0  0  0  0  0  0  0
   -0.9863  -13.7998   24.9900 C   0  0  0  0  0  0  0  0  0  0  0  0
    0.9052  -13.7431   24.1442 C   0  0  0  0  0  0  0  0  0  0  0  0
   10.6957   -5.3410   20.5358 C   0  0  0  0  0  0  0  0  0  0  0  0
   12.1301   -4.7924   21.7153 C   0  0  0  0  0  0  0  0  0  0  0  0
   12.2623   -3.8703   22.7560 C   0  0  0  0  0  0  0  0  0  0  0  0
   13.5885   -3.7317   23.2628 C   0  0  0  0  0  0  0  0  0  0  0  0
   14.4279   -4.7046   22.7971 C   0  0  0  0  0  0  0  0  0  0  0  0
   13.5840   -5.8504   21.8806 S   0  0  0  0  0  0  0  0  0  0  0  0
   12.8908   -4.1717   16.2719 H   0  0  0  0  0  0  0  0  0  0  0  0
   12.6421   -3.2118   17.7152 H   0  0  0  0  0  0  0  0  0  0  0  0
   11.6624   -2.9315   16.2867 H   0  0  0  0  0  0  0  0  0  0  0  0
   11.4142   -5.7309   16.7202 H   0  0  0  0  0  0  0  0  0  0  0  0
   10.3712   -4.3911   16.5772 H   0  0  0  0  0  0  0  0  0  0  0  0
    9.5740   -6.3471   18.8478 H   0  0  0  0  0  0  0  0  0  0  0  0
   12.4462   -4.1140   19.5189 H   0  0  0  0  0  0  0  0  0  0  0  0
   12.8093   -5.8083   19.6417 H   0  0  0  0  0  0  0  0  0  0  0  0
   12.7869   -5.1736   18.2095 H   0  0  0  0  0  0  0  0  0  0  0  0
    7.2765   -4.9104   22.4253 H   0  0  0  0  0  0  0  0  0  0  0  0
    7.7652   -6.0401   22.7950 H   0  0  0  0  0  0  0  0  0  0  0  0
    5.0703   -6.6053   23.3378 H   0  0  0  0  0  0  0  0  0  0  0  0
    6.3264   -7.1556   23.4436 H   0  0  0  0  0  0  0  0  0  0  0  0
    5.1632   -9.4552   24.1836 H   0  0  0  0  0  0  0  0  0  0  0  0
    1.2890  -11.6640   23.3084 H   0  0  0  0  0  0  0  0  0  0  0  0
    1.5398  -11.2448   26.3248 H   0  0  0  0  0  0  0  0  0  0  0  0
    1.6999  -13.1298   26.0770 H   0  0  0  0  0  0  0  0  0  0  0  0
   -0.1305  -11.2330   27.1641 H   0  0  0  0  0  0  0  0  0  0  0  0
    0.7004  -12.6111   27.7195 H   0  0  0  0  0  0  0  0  0  0  0  0
   -3.2017  -15.8468   30.6676 H   0  0  0  0  0  0  0  0  0  0  0  0
   -4.0995  -14.7793   32.6352 H   0  0  0  0  0  0  0  0  0  0  0  0
   -3.8464  -12.3345   32.9282 H   0  0  0  0  0  0  0  0  0  0  0  0
   -2.6965  -10.9768   31.2043 H   0  0  0  0  0  0  0  0  0  0  0  0
   -1.8280  -11.2959   28.4163 H   0  0  0  0  0  0  0  0  0  0  0  0
   -1.8575  -14.3713   25.4173 H   0  0  0  0  0  0  0  0  0  0  0  0
   -1.1141  -14.8035   24.5199 H   0  0  0  0  0  0  0  0  0  0  0  0
    1.4510  -14.5313   23.5959 H   0  0  0  0  0  0  0  0  0  0  0  0
    0.0968  -13.8628   23.2831 H   0  0  0  0  0  0  0  0  0  0  0  0
   10.3235   -6.3273   20.6415 H   0  0  0  0  0  0  0  0  0  0  0  0
   11.4239   -6.2165   20.4766 H   0  0  0  0  0  0  0  0  0  0  0  0
   11.4831   -3.2119   23.1099 H   0  0  0  0  0  0  0  0  0  0  0  0
   13.8921   -2.9635   23.9635 H   0  0  0  0  0  0  0  0  0  0  0  0
   15.4717   -4.8478   23.0407 H   0  0  0  0  0  0  0  0  0  0  0  0
  1  2  1  0
  2  3  1  0
  3  4  1  0
  3  5  1  0
  5  6  1  0
  6  7  1  0
  7  8  1  0
  8  9  1  0
  9 10  2  0
  9 11  1  0
 11 12  1  0
 12 13  1  0
 13 14  1  0
 14 15  1  0
 15 16  2  0
 16 17  1  0
 17 18  2  0
 18 19  1  0
 19 20  2  0
 20 21  1  0
 21 22  2  0
 22 23  1  0
 14 24  1  0
 24 25  1  0
  5 26  1  0
 26 27  1  0
 27 28  2  0
 28 29  1  0
 29 30  2  0
 30 31  1  0
 25 11  1  0
 31 27  1  0
 23 15  1  0
 22 17  1  0
  1 32  1  0
  1 33  1  0
  1 34  1  0
  2 35  1  0
  2 36  1  0
  3 37  1  0
  4 38  1  0
  4 39  1  0
  4 40  1  0
  6 41  1  0
  6 42  1  0
  7 43  1  0
  7 44  1  0
  8 45  1  0
 11 46  1  0
 12 47  1  0
 12 48  1  0
 13 49  1  0
 13 50  1  0
 18 51  1  0
 19 52  1  0
 20 53  1  0
 21 54  1  0
 23 55  1  0
 24 56  1  0
 24 57  1  0
 25 58  1  0
 25 59  1  0
 26 60  1  0
 26 61  1  0
 28 62  1  0
 29 63  1  0
 30 64  1  0
M  END
>  <Energy>  (166) 
2379.1938854452574

>  <compound_id>  (166) 
4862

>  <target_id>  (166) 
1

>  <reference_id>  (166) 
76

>  <inspiration_ids>  (166) 
[94, 76]

>  <energy_score>  (166) 
2297.390560294836

>  <distance_score>  (166) 
11.452946357209571

>  <path>  (166) 
/opt/xchem-fragalysis-2/maxwin/BulkDock/SCRATCH/511018/C4862-P76/C4862-P76.minimised.mol

>  <scratch_subdir>  (166) 
/opt/xchem-fragalysis-2/maxwin/BulkDock/SCRATCH/511018/C4862-P76

>  <fragmenstein_runtime>  (166) 
36.834569692611694

>  <fragmenstein_outcome>  (166) 
too moved

>  <fragmenstein_mode>  (166) 
expansion

>  <fragmenstein_error>  (166) 


$$$$
C4864-P94
     RDKit          3D

 42 45  0  0  0  0  0  0  0  0999 V2000
   10.1107   -5.6617   18.9357 O   0  0  0  0  0  0  0  0  0  0  0  0
   10.2435   -5.6581   20.3241 S   0  0  0  0  0  0  0  0  0  0  0  0
   10.6245   -7.2405   20.8602 O   0  0  0  0  0  0  0  0  0  0  0  0
    8.1808   -4.9396   21.4010 N   0  0  0  0  0  0  0  0  0  0  0  0
    7.9339   -5.7803   23.2753 C   0  0  0  0  0  0  0  0  0  0  0  0
    9.0889   -6.6557   24.7153 C   0  0  0  0  0  0  0  0  0  0  0  0
    8.7183   -7.5893   26.0944 C   0  0  0  0  0  0  0  0  0  0  0  0
    7.3485   -8.1252   26.0799 N   0  0  0  0  0  0  0  0  0  0  0  0
    6.8854   -9.2120   26.9670 C   0  0  0  0  0  0  0  0  0  0  0  0
    5.9882   -9.1713   27.9676 N   0  0  0  0  0  0  0  0  0  0  0  0
    5.7104  -10.4894   28.3967 C   0  0  0  0  0  0  0  0  0  0  0  0
    4.8555  -11.0166   29.4084 C   0  0  0  0  0  0  0  0  0  0  0  0
    4.6806  -12.4107   29.5574 C   0  0  0  0  0  0  0  0  0  0  0  0
    5.3698  -13.2871   28.7249 C   0  0  0  0  0  0  0  0  0  0  0  0
    6.2558  -12.7928   27.7447 C   0  0  0  0  0  0  0  0  0  0  0  0
    6.4034  -11.3893   27.6046 C   0  0  0  0  0  0  0  0  0  0  0  0
    7.1367  -10.5773   26.7358 N   0  0  0  0  0  0  0  0  0  0  0  0
    6.8721   -8.2207   24.6985 C   0  0  0  0  0  0  0  0  0  0  0  0
    6.7712   -6.8296   23.4887 C   0  0  0  0  0  0  0  0  0  0  0  0
   12.1778   -4.8899   20.5999 C   0  0  0  0  0  0  0  0  0  0  0  0
   13.0979   -4.5734   19.5970 C   0  0  0  0  0  0  0  0  0  0  0  0
   14.3231   -4.0827   20.1166 C   0  0  0  0  0  0  0  0  0  0  0  0
   14.3220   -4.0780   21.4927 C   0  0  0  0  0  0  0  0  0  0  0  0
   12.8567   -4.6719   22.1529 S   0  0  0  0  0  0  0  0  0  0  0  0
    8.5423   -4.0076   21.5897 H   0  0  0  0  0  0  0  0  0  0  0  0
    7.6014   -4.7595   23.5419 H   0  0  0  0  0  0  0  0  0  0  0  0
    9.7277   -5.8419   25.1342 H   0  0  0  0  0  0  0  0  0  0  0  0
    9.7800   -7.4409   24.3313 H   0  0  0  0  0  0  0  0  0  0  0  0
    9.4496   -8.4051   26.1561 H   0  0  0  0  0  0  0  0  0  0  0  0
    8.8552   -6.9563   26.9796 H   0  0  0  0  0  0  0  0  0  0  0  0
    4.3188  -10.3473   30.0674 H   0  0  0  0  0  0  0  0  0  0  0  0
    4.0082  -12.7944   30.3208 H   0  0  0  0  0  0  0  0  0  0  0  0
    5.2311  -14.3610   28.8302 H   0  0  0  0  0  0  0  0  0  0  0  0
    6.7909  -13.4788   27.0939 H   0  0  0  0  0  0  0  0  0  0  0  0
    7.7284  -10.9190   25.9972 H   0  0  0  0  0  0  0  0  0  0  0  0
    5.8258   -8.4971   24.8590 H   0  0  0  0  0  0  0  0  0  0  0  0
    7.5058   -9.0215   24.2952 H   0  0  0  0  0  0  0  0  0  0  0  0
    6.4918   -7.0921   22.4971 H   0  0  0  0  0  0  0  0  0  0  0  0
    5.8760   -6.3457   23.8134 H   0  0  0  0  0  0  0  0  0  0  0  0
   12.8695   -4.6544   18.5416 H   0  0  0  0  0  0  0  0  0  0  0  0
   15.1626   -3.7495   19.5184 H   0  0  0  0  0  0  0  0  0  0  0  0
   15.1171   -3.7556   22.1515 H   0  0  0  0  0  0  0  0  0  0  0  0
  1  2  2  0
  2  3  2  0
  2  4  1  0
  4  5  1  0
  5  6  1  0
  6  7  1  0
  7  8  1  0
  8  9  1  0
  9 10  2  0
 10 11  1  0
 11 12  2  0
 12 13  1  0
 13 14  2  0
 14 15  1  0
 15 16  2  0
 16 17  1  0
  8 18  1  0
 18 19  1  0
  2 20  1  0
 20 21  2  0
 21 22  1  0
 22 23  2  0
 23 24  1  0
 19  5  1  0
 24 20  1  0
 17  9  1  0
 16 11  1  0
  4 25  1  0
  5 26  1  0
  6 27  1  0
  6 28  1  0
  7 29  1  0
  7 30  1  0
 12 31  1  0
 13 32  1  0
 14 33  1  0
 15 34  1  0
 17 35  1  0
 18 36  1  0
 18 37  1  0
 19 38  1  0
 19 39  1  0
 21 40  1  0
 22 41  1  0
 23 42  1  0
M  END
>  <Energy>  (167) 
390.81166843053364

>  <compound_id>  (167) 
4864

>  <target_id>  (167) 
1

>  <reference_id>  (167) 
94

>  <inspiration_ids>  (167) 
[94, 76]

>  <energy_score>  (167) 
372.24578801941897

>  <distance_score>  (167) 
16.770006842253263

>  <path>  (167) 
/opt/xchem-fragalysis-2/maxwin/BulkDock/SCRATCH/511018/C4864-P94/C4864-P94.minimised.mol

>  <scratch_subdir>  (167) 
/opt/xchem-fragalysis-2/maxwin/BulkDock/SCRATCH/511018/C4864-P94

>  <fragmenstein_runtime>  (167) 
16.45144772529602

>  <fragmenstein_outcome>  (167) 
too moved

>  <fragmenstein_mode>  (167) 
expansion

>  <fragmenstein_error>  (167) 


$$$$
C4864-P76
     RDKit          3D

 42 45  0  0  0  0  0  0  0  0999 V2000
   11.8695   -6.1395   16.4521 O   0  0  0  0  0  0  0  0  0  0  0  0
   11.2816   -5.1273   17.3188 S   0  0  0  0  0  0  0  0  0  0  0  0
   10.9119   -3.9262   16.5855 O   0  0  0  0  0  0  0  0  0  0  0  0
    9.7734   -6.1888   18.8523 N   0  0  0  0  0  0  0  0  0  0  0  0
    9.5104   -8.2973   19.5229 C   0  0  0  0  0  0  0  0  0  0  0  0
    8.4415   -9.6444   18.6271 C   0  0  0  0  0  0  0  0  0  0  0  0
    7.5867  -11.0258   18.6048 C   0  0  0  0  0  0  0  0  0  0  0  0
    8.3537  -12.1177   19.2671 N   0  0  0  0  0  0  0  0  0  0  0  0
    7.7296  -13.4147   19.3045 C   0  0  0  0  0  0  0  0  0  0  0  0
    6.6793  -13.8603   18.6113 N   0  0  0  0  0  0  0  0  0  0  0  0
    6.4220  -15.1939   18.9756 C   0  0  0  0  0  0  0  0  0  0  0  0
    5.4892  -16.1557   18.4889 C   0  0  0  0  0  0  0  0  0  0  0  0
    5.2804  -17.3656   19.1898 C   0  0  0  0  0  0  0  0  0  0  0  0
    6.0311  -17.6483   20.3283 C   0  0  0  0  0  0  0  0  0  0  0  0
    7.0413  -16.7626   20.7542 C   0  0  0  0  0  0  0  0  0  0  0  0
    7.2144  -15.5394   20.0557 C   0  0  0  0  0  0  0  0  0  0  0  0
    8.0761  -14.4454   20.1868 N   0  0  0  0  0  0  0  0  0  0  0  0
    9.8400  -11.7899   19.3307 C   0  0  0  0  0  0  0  0  0  0  0  0
   10.4623  -10.0583   19.5763 C   0  0  0  0  0  0  0  0  0  0  0  0
   12.8590   -4.4659   18.1076 C   0  0  0  0  0  0  0  0  0  0  0  0
   13.8309   -3.7059   17.4711 C   0  0  0  0  0  0  0  0  0  0  0  0
   14.9080   -3.3729   18.3325 C   0  0  0  0  0  0  0  0  0  0  0  0
   14.7283   -3.8918   19.5952 C   0  0  0  0  0  0  0  0  0  0  0  0
   13.2747   -4.7834   19.7301 S   0  0  0  0  0  0  0  0  0  0  0  0
    9.8088   -5.5312   19.6634 H   0  0  0  0  0  0  0  0  0  0  0  0
    9.8726   -8.2927   20.5480 H   0  0  0  0  0  0  0  0  0  0  0  0
    8.9780  -10.0451   17.7511 H   0  0  0  0  0  0  0  0  0  0  0  0
    8.5649  -10.0824   19.5644 H   0  0  0  0  0  0  0  0  0  0  0  0
    7.3691  -11.2988   17.5624 H   0  0  0  0  0  0  0  0  0  0  0  0
    6.6222  -10.9219   19.1080 H   0  0  0  0  0  0  0  0  0  0  0  0
    4.8684  -15.8994   17.6378 H   0  0  0  0  0  0  0  0  0  0  0  0
    4.5140  -18.0551   18.8496 H   0  0  0  0  0  0  0  0  0  0  0  0
    5.8626  -18.5746   20.8707 H   0  0  0  0  0  0  0  0  0  0  0  0
    7.6600  -17.0066   21.6118 H   0  0  0  0  0  0  0  0  0  0  0  0
    8.8145  -14.3716   20.8637 H   0  0  0  0  0  0  0  0  0  0  0  0
   10.3088  -12.3742   20.1318 H   0  0  0  0  0  0  0  0  0  0  0  0
   10.2894  -12.1101   18.3815 H   0  0  0  0  0  0  0  0  0  0  0  0
   10.9684  -10.1573   20.5552 H   0  0  0  0  0  0  0  0  0  0  0  0
   11.2110  -10.1935   18.8131 H   0  0  0  0  0  0  0  0  0  0  0  0
   13.7503   -3.4160   16.4291 H   0  0  0  0  0  0  0  0  0  0  0  0
   15.7721   -2.7859   18.0439 H   0  0  0  0  0  0  0  0  0  0  0  0
   15.3854   -3.7925   20.4491 H   0  0  0  0  0  0  0  0  0  0  0  0
  1  2  2  0
  2  3  2  0
  2  4  1  0
  4  5  1  0
  5  6  1  0
  6  7  1  0
  7  8  1  0
  8  9  1  0
  9 10  2  0
 10 11  1  0
 11 12  2  0
 12 13  1  0
 13 14  2  0
 14 15  1  0
 15 16  2  0
 16 17  1  0
  8 18  1  0
 18 19  1  0
  2 20  1  0
 20 21  2  0
 21 22  1  0
 22 23  2  0
 23 24  1  0
 19  5  1  0
 24 20  1  0
 17  9  1  0
 16 11  1  0
  4 25  1  0
  5 26  1  0
  6 27  1  0
  6 28  1  0
  7 29  1  0
  7 30  1  0
 12 31  1  0
 13 32  1  0
 14 33  1  0
 15 34  1  0
 17 35  1  0
 18 36  1  0
 18 37  1  0
 19 38  1  0
 19 39  1  0
 21 40  1  0
 22 41  1  0
 23 42  1  0
M  END
>  <Energy>  (168) 
580.12978679668061

>  <compound_id>  (168) 
4864

>  <target_id>  (168) 
1

>  <reference_id>  (168) 
76

>  <inspiration_ids>  (168) 
[94, 76]

>  <energy_score>  (168) 
561.5639063855751

>  <distance_score>  (168) 
17.08480786230895

>  <path>  (168) 
/opt/xchem-fragalysis-2/maxwin/BulkDock/SCRATCH/511018/C4864-P76/C4864-P76.minimised.mol

>  <scratch_subdir>  (168) 
/opt/xchem-fragalysis-2/maxwin/BulkDock/SCRATCH/511018/C4864-P76

>  <fragmenstein_runtime>  (168) 
11.631866931915283

>  <fragmenstein_outcome>  (168) 
too moved

>  <fragmenstein_mode>  (168) 
expansion

>  <fragmenstein_error>  (168) 


$$$$
C4869-P94
     RDKit          3D

 38 41  0  0  0  0  0  0  0  0999 V2000
    0.7294   -5.4251   18.8152 O   0  0  0  0  0  0  0  0  0  0  0  0
    1.0259   -6.5520   18.4153 C   0  0  0  0  0  0  0  0  0  0  0  0
    0.0295   -7.6672   18.7929 C   0  0  0  0  0  0  0  0  0  0  0  0
   -0.9530   -7.5065   19.7356 C   0  0  0  0  0  0  0  0  0  0  0  0
   -2.1894   -8.3808   20.1510 C   0  0  0  0  0  0  0  0  0  0  0  0
   -2.7910   -8.4024   21.4562 C   0  0  0  0  0  0  0  0  0  0  0  0
   -4.0566   -9.1222   21.8570 C   0  0  0  0  0  0  0  0  0  0  0  0
   -4.8329   -9.8443   20.9422 C   0  0  0  0  0  0  0  0  0  0  0  0
   -6.1054  -10.6447   21.2533 N   0  0  0  0  0  0  0  0  0  0  0  0
   -6.8261  -11.3318   20.2737 C   0  0  0  0  0  0  0  0  0  0  0  0
   -7.6468  -12.2577   20.7282 N   0  0  0  0  0  0  0  0  0  0  0  0
   -7.6383  -12.1048   22.0781 C   0  0  0  0  0  0  0  0  0  0  0  0
   -8.3360  -12.8839   23.0335 C   0  0  0  0  0  0  0  0  0  0  0  0
   -8.2640  -12.5381   24.3762 C   0  0  0  0  0  0  0  0  0  0  0  0
   -7.5525  -11.3982   24.7339 C   0  0  0  0  0  0  0  0  0  0  0  0
   -6.8355  -10.6220   23.7860 C   0  0  0  0  0  0  0  0  0  0  0  0
   -6.8157  -11.0217   22.4440 C   0  0  0  0  0  0  0  0  0  0  0  0
   -4.2374   -9.8143   19.6352 C   0  0  0  0  0  0  0  0  0  0  0  0
   -2.9703   -9.1141   19.2531 C   0  0  0  0  0  0  0  0  0  0  0  0
    2.2173   -6.8298   17.5836 C   0  0  0  0  0  0  0  0  0  0  0  0
    2.7083   -8.0065   17.0382 C   0  0  0  0  0  0  0  0  0  0  0  0
    3.9826   -7.8518   16.3982 C   0  0  0  0  0  0  0  0  0  0  0  0
    4.4185   -6.5517   16.4365 C   0  0  0  0  0  0  0  0  0  0  0  0
    3.2805   -5.5274   17.1842 S   0  0  0  0  0  0  0  0  0  0  0  0
    0.0906   -8.5764   18.2091 H   0  0  0  0  0  0  0  0  0  0  0  0
   -0.9562   -6.5665   20.2944 H   0  0  0  0  0  0  0  0  0  0  0  0
   -2.2973   -7.8306   22.2463 H   0  0  0  0  0  0  0  0  0  0  0  0
   -4.3654   -9.0437   22.8955 H   0  0  0  0  0  0  0  0  0  0  0  0
   -6.6574  -11.1519   19.2221 H   0  0  0  0  0  0  0  0  0  0  0  0
   -8.9393  -13.7213   22.6998 H   0  0  0  0  0  0  0  0  0  0  0  0
   -8.8022  -13.1093   25.1263 H   0  0  0  0  0  0  0  0  0  0  0  0
   -7.5445  -11.0839   25.7782 H   0  0  0  0  0  0  0  0  0  0  0  0
   -6.3233   -9.7219   24.0911 H   0  0  0  0  0  0  0  0  0  0  0  0
   -4.7141  -10.3471   18.8120 H   0  0  0  0  0  0  0  0  0  0  0  0
   -2.6780   -9.1686   18.2042 H   0  0  0  0  0  0  0  0  0  0  0  0
    2.2189   -8.9683   17.1365 H   0  0  0  0  0  0  0  0  0  0  0  0
    4.5421   -8.6663   15.9509 H   0  0  0  0  0  0  0  0  0  0  0  0
    5.3354   -6.1477   16.0410 H   0  0  0  0  0  0  0  0  0  0  0  0
  1  2  2  0
  2  3  1  0
  3  4  2  3
  4  5  1  0
  5  6  2  0
  6  7  1  0
  7  8  2  0
  8  9  1  0
  9 10  1  0
 10 11  2  0
 11 12  1  0
 12 13  2  0
 13 14  1  0
 14 15  2  0
 15 16  1  0
 16 17  2  0
  8 18  1  0
 18 19  2  0
  2 20  1  0
 20 21  2  0
 21 22  1  0
 22 23  2  0
 23 24  1  0
 19  5  1  0
 24 20  1  0
 17  9  1  0
 17 12  1  0
  3 25  1  0
  4 26  1  0
  6 27  1  0
  7 28  1  0
 10 29  1  0
 13 30  1  0
 14 31  1  0
 15 32  1  0
 16 33  1  0
 18 34  1  0
 19 35  1  0
 21 36  1  0
 22 37  1  0
 23 38  1  0
M  END
>  <Energy>  (169) 
124.01682471719872

>  <compound_id>  (169) 
4869

>  <target_id>  (169) 
1

>  <reference_id>  (169) 
94

>  <inspiration_ids>  (169) 
[94, 76]

>  <energy_score>  (169) 
-18.006422373977102

>  <distance_score>  (169) 
16.351656120371494

>  <path>  (169) 
/opt/xchem-fragalysis-2/maxwin/BulkDock/SCRATCH/511018/C4869-P94/C4869-P94.minimised.mol

>  <scratch_subdir>  (169) 
/opt/xchem-fragalysis-2/maxwin/BulkDock/SCRATCH/511018/C4869-P94

>  <fragmenstein_runtime>  (169) 
30.101959943771362

>  <fragmenstein_outcome>  (169) 
too moved

>  <fragmenstein_mode>  (169) 
expansion

>  <fragmenstein_error>  (169) 


$$$$
C4869-P76
     RDKit          3D

 38 41  0  0  0  0  0  0  0  0999 V2000
    0.7228   -5.0629   18.3364 O   0  0  0  0  0  0  0  0  0  0  0  0
    0.9906   -6.2179   18.0031 C   0  0  0  0  0  0  0  0  0  0  0  0
   -0.1019   -7.2584   18.2993 C   0  0  0  0  0  0  0  0  0  0  0  0
   -0.9506   -7.1601   19.3670 C   0  0  0  0  0  0  0  0  0  0  0  0
   -2.1890   -7.9657   19.9269 C   0  0  0  0  0  0  0  0  0  0  0  0
   -2.8685   -9.1269   19.4539 C   0  0  0  0  0  0  0  0  0  0  0  0
   -4.0806   -9.7845   20.1052 C   0  0  0  0  0  0  0  0  0  0  0  0
   -4.6912   -9.2952   21.2696 C   0  0  0  0  0  0  0  0  0  0  0  0
   -5.8740   -9.9120   22.0043 N   0  0  0  0  0  0  0  0  0  0  0  0
   -6.2694   -9.5096   23.2768 C   0  0  0  0  0  0  0  0  0  0  0  0
   -6.9856  -10.3927   23.9411 N   0  0  0  0  0  0  0  0  0  0  0  0
   -7.3425  -11.3114   23.0083 C   0  0  0  0  0  0  0  0  0  0  0  0
   -8.2053  -12.4190   23.1812 C   0  0  0  0  0  0  0  0  0  0  0  0
   -8.6421  -13.1166   22.0589 C   0  0  0  0  0  0  0  0  0  0  0  0
   -8.2098  -12.7103   20.7956 C   0  0  0  0  0  0  0  0  0  0  0  0
   -7.2793  -11.6516   20.6146 C   0  0  0  0  0  0  0  0  0  0  0  0
   -6.8074  -10.9668   21.7470 C   0  0  0  0  0  0  0  0  0  0  0  0
   -4.0002   -8.1432   21.7482 C   0  0  0  0  0  0  0  0  0  0  0  0
   -2.8120   -7.5102   21.1070 C   0  0  0  0  0  0  0  0  0  0  0  0
    2.2546   -6.5565   17.3275 C   0  0  0  0  0  0  0  0  0  0  0  0
    3.3155   -5.6950   17.0733 C   0  0  0  0  0  0  0  0  0  0  0  0
    4.4243   -6.3393   16.4523 C   0  0  0  0  0  0  0  0  0  0  0  0
    4.1772   -7.6680   16.2132 C   0  0  0  0  0  0  0  0  0  0  0  0
    2.6172   -8.1238   16.7426 S   0  0  0  0  0  0  0  0  0  0  0  0
   -0.2102   -8.0421   17.5595 H   0  0  0  0  0  0  0  0  0  0  0  0
   -0.7633   -6.2958   20.0143 H   0  0  0  0  0  0  0  0  0  0  0  0
   -2.5025   -9.6076   18.5436 H   0  0  0  0  0  0  0  0  0  0  0  0
   -4.4635  -10.6837   19.6241 H   0  0  0  0  0  0  0  0  0  0  0  0
   -5.9498   -8.5647   23.6873 H   0  0  0  0  0  0  0  0  0  0  0  0
   -8.5797  -12.6514   24.1724 H   0  0  0  0  0  0  0  0  0  0  0  0
   -9.3464  -13.9369   22.1622 H   0  0  0  0  0  0  0  0  0  0  0  0
   -8.5823  -13.2317   19.9141 H   0  0  0  0  0  0  0  0  0  0  0  0
   -6.9461  -11.3786   19.6178 H   0  0  0  0  0  0  0  0  0  0  0  0
   -4.3437   -7.6365   22.6498 H   0  0  0  0  0  0  0  0  0  0  0  0
   -2.4237   -6.6184   21.6042 H   0  0  0  0  0  0  0  0  0  0  0  0
    3.2860   -4.6457   17.3437 H   0  0  0  0  0  0  0  0  0  0  0  0
    5.3482   -5.8580   16.1826 H   0  0  0  0  0  0  0  0  0  0  0  0
    4.8255   -8.4025   15.7520 H   0  0  0  0  0  0  0  0  0  0  0  0
  1  2  2  0
  2  3  1  0
  3  4  2  3
  4  5  1  0
  5  6  2  0
  6  7  1  0
  7  8  2  0
  8  9  1  0
  9 10  1  0
 10 11  2  0
 11 12  1  0
 12 13  2  0
 13 14  1  0
 14 15  2  0
 15 16  1  0
 16 17  2  0
  8 18  1  0
 18 19  2  0
  2 20  1  0
 20 21  2  0
 21 22  1  0
 22 23  2  0
 23 24  1  0
 19  5  1  0
 24 20  1  0
 17  9  1  0
 17 12  1  0
  3 25  1  0
  4 26  1  0
  6 27  1  0
  7 28  1  0
 10 29  1  0
 13 30  1  0
 14 31  1  0
 15 32  1  0
 16 33  1  0
 18 34  1  0
 19 35  1  0
 21 36  1  0
 22 37  1  0
 23 38  1  0
M  END
>  <Energy>  (170) 
126.073301859404

>  <compound_id>  (170) 
4869

>  <target_id>  (170) 
1

>  <reference_id>  (170) 
76

>  <inspiration_ids>  (170) 
[94, 76]

>  <energy_score>  (170) 
-15.949945231772745

>  <distance_score>  (170) 
16.30250397942542

>  <path>  (170) 
/opt/xchem-fragalysis-2/maxwin/BulkDock/SCRATCH/511018/C4869-P76/C4869-P76.minimised.mol

>  <scratch_subdir>  (170) 
/opt/xchem-fragalysis-2/maxwin/BulkDock/SCRATCH/511018/C4869-P76

>  <fragmenstein_runtime>  (170) 
16.25084114074707

>  <fragmenstein_outcome>  (170) 
too moved

>  <fragmenstein_mode>  (170) 
expansion

>  <fragmenstein_error>  (170) 


$$$$
C4871-P94
     RDKit          3D

 42 45  0  0  0  0  0  0  0  0999 V2000
    7.8477   -6.0466   15.1422 O   0  0  0  0  0  0  0  0  0  0  0  0
    8.2822   -7.0529   15.1275 C   0  0  0  0  0  0  0  0  0  0  0  0
    6.6651   -8.4888   15.0940 C   0  0  0  0  0  0  0  0  0  0  0  0
    5.3696   -8.8617   17.1763 S   0  0  0  0  0  0  0  0  0  0  0  0
    4.1697  -10.3218   18.5225 C   0  0  0  0  0  0  0  0  0  0  0  0
    3.5340  -11.2611   17.7812 N   0  0  0  0  0  0  0  0  0  0  0  0
    2.1631  -11.2774   18.1343 C   0  0  0  0  0  0  0  0  0  0  0  0
    1.1069  -12.0463   17.5665 C   0  0  0  0  0  0  0  0  0  0  0  0
   -0.2327  -11.8375   17.9541 C   0  0  0  0  0  0  0  0  0  0  0  0
   -0.5465  -10.8315   18.8655 C   0  0  0  0  0  0  0  0  0  0  0  0
    0.4740  -10.0719   19.4723 C   0  0  0  0  0  0  0  0  0  0  0  0
    1.8273  -10.3650   19.1492 C   0  0  0  0  0  0  0  0  0  0  0  0
    3.0263  -10.3909   19.9693 N   0  0  0  0  0  0  0  0  0  0  0  0
    2.5510  -11.2703   21.5634 C   0  0  0  0  0  0  0  0  0  0  0  0
    0.8798  -11.5272   22.2713 C   0  0  0  0  0  0  0  0  0  0  0  0
   -0.1181  -13.0727   22.8164 C   0  0  0  0  0  0  0  0  0  0  0  0
    0.9965  -14.0438   23.8232 C   0  0  0  0  0  0  0  0  0  0  0  0
    2.6536  -13.2983   23.6341 C   0  0  0  0  0  0  0  0  0  0  0  0
    3.3463  -12.2575   22.3620 C   0  0  0  0  0  0  0  0  0  0  0  0
    9.8401   -7.2500   15.3234 N   0  0  0  0  0  0  0  0  0  0  0  0
   11.2843   -5.9872   15.7667 C   0  0  0  0  0  0  0  0  0  0  0  0
   11.1175   -4.8193   15.8387 O   0  0  0  0  0  0  0  0  0  0  0  0
   12.7083   -6.2826   16.2002 C   0  0  0  0  0  0  0  0  0  0  0  0
   13.9190   -5.2027   16.0010 C   0  0  0  0  0  0  0  0  0  0  0  0
   13.6095   -3.7906   15.9749 C   0  0  0  0  0  0  0  0  0  0  0  0
   12.8853   -3.5883   17.1041 C   0  0  0  0  0  0  0  0  0  0  0  0
   13.2426   -5.0374   17.9470 S   0  0  0  0  0  0  0  0  0  0  0  0
    5.8628   -8.0407   14.4984 H   0  0  0  0  0  0  0  0  0  0  0  0
    6.7840   -9.5703   14.9337 H   0  0  0  0  0  0  0  0  0  0  0  0
    1.3495  -12.7797   16.8031 H   0  0  0  0  0  0  0  0  0  0  0  0
   -1.0214  -12.4326   17.5012 H   0  0  0  0  0  0  0  0  0  0  0  0
   -1.5837  -10.6530   19.1405 H   0  0  0  0  0  0  0  0  0  0  0  0
    0.2410   -9.3588   20.2578 H   0  0  0  0  0  0  0  0  0  0  0  0
    0.1711  -10.7274   21.9389 H   0  0  0  0  0  0  0  0  0  0  0  0
   -0.2082  -14.0676   22.1439 H   0  0  0  0  0  0  0  0  0  0  0  0
    0.6360  -14.1397   24.8261 H   0  0  0  0  0  0  0  0  0  0  0  0
    2.3437  -12.4957   24.3302 H   0  0  0  0  0  0  0  0  0  0  0  0
    4.3600  -12.5277   22.0688 H   0  0  0  0  0  0  0  0  0  0  0  0
   10.0792   -8.2192   15.3822 H   0  0  0  0  0  0  0  0  0  0  0  0
   14.8502   -5.5290   15.5493 H   0  0  0  0  0  0  0  0  0  0  0  0
   14.1164   -2.9976   15.4403 H   0  0  0  0  0  0  0  0  0  0  0  0
   12.6095   -2.6589   17.5689 H   0  0  0  0  0  0  0  0  0  0  0  0
  1  2  2  0
  2  3  1  0
  3  4  1  0
  4  5  1  0
  5  6  2  0
  6  7  1  0
  7  8  2  0
  8  9  1  0
  9 10  2  0
 10 11  1  0
 11 12  2  0
 12 13  1  0
 13 14  1  0
 14 15  2  0
 15 16  1  0
 16 17  2  0
 17 18  1  0
 18 19  2  0
  2 20  1  0
 20 21  1  0
 21 22  2  0
 21 23  1  0
 23 24  2  0
 24 25  1  0
 25 26  2  0
 26 27  1  0
 13  5  1  0
 19 14  1  0
 27 23  1  0
 12  7  1  0
  3 28  1  0
  3 29  1  0
  8 30  1  0
  9 31  1  0
 10 32  1  0
 11 33  1  0
 15 34  1  0
 16 35  1  0
 17 36  1  0
 18 37  1  0
 19 38  1  0
 20 39  1  0
 24 40  1  0
 25 41  1  0
 26 42  1  0
M  END
>  <Energy>  (171) 
1276.4226589245195

>  <compound_id>  (171) 
4871

>  <target_id>  (171) 
1

>  <reference_id>  (171) 
94

>  <inspiration_ids>  (171) 
[94, 76]

>  <energy_score>  (171) 
1174.100650250096

>  <distance_score>  (171) 
16.789670437395294

>  <path>  (171) 
/opt/xchem-fragalysis-2/maxwin/BulkDock/SCRATCH/511018/C4871-P94/C4871-P94.minimised.mol

>  <scratch_subdir>  (171) 
/opt/xchem-fragalysis-2/maxwin/BulkDock/SCRATCH/511018/C4871-P94

>  <fragmenstein_runtime>  (171) 
21.287434577941895

>  <fragmenstein_outcome>  (171) 
too moved

>  <fragmenstein_mode>  (171) 
expansion

>  <fragmenstein_error>  (171) 


$$$$
C4871-P76
     RDKit          3D

 42 45  0  0  0  0  0  0  0  0999 V2000
    2.0354  -19.4281   29.9450 O   0  0  0  0  0  0  0  0  0  0  0  0
    2.1053  -19.5082   28.7670 C   0  0  0  0  0  0  0  0  0  0  0  0
    1.1619  -20.5543   28.0666 C   0  0  0  0  0  0  0  0  0  0  0  0
   -0.6027  -20.2622   28.5407 S   0  0  0  0  0  0  0  0  0  0  0  0
   -1.2983  -21.6555   29.3835 C   0  0  0  0  0  0  0  0  0  0  0  0
   -1.4903  -22.8169   28.7871 N   0  0  0  0  0  0  0  0  0  0  0  0
   -2.3473  -23.5239   29.5999 C   0  0  0  0  0  0  0  0  0  0  0  0
   -2.8700  -24.8192   29.4305 C   0  0  0  0  0  0  0  0  0  0  0  0
   -3.7261  -25.3572   30.4006 C   0  0  0  0  0  0  0  0  0  0  0  0
   -4.0106  -24.6411   31.5584 C   0  0  0  0  0  0  0  0  0  0  0  0
   -3.4718  -23.3639   31.7641 C   0  0  0  0  0  0  0  0  0  0  0  0
   -2.6887  -22.7980   30.7354 C   0  0  0  0  0  0  0  0  0  0  0  0
   -2.0532  -21.5637   30.5707 N   0  0  0  0  0  0  0  0  0  0  0  0
   -2.1235  -20.4929   31.5069 C   0  0  0  0  0  0  0  0  0  0  0  0
   -3.3498  -20.1042   32.0674 C   0  0  0  0  0  0  0  0  0  0  0  0
   -3.3873  -19.0926   33.0290 C   0  0  0  0  0  0  0  0  0  0  0  0
   -2.2077  -18.4790   33.4469 C   0  0  0  0  0  0  0  0  0  0  0  0
   -0.9871  -18.8657   32.8944 C   0  0  0  0  0  0  0  0  0  0  0  0
   -0.9415  -19.8637   31.9177 C   0  0  0  0  0  0  0  0  0  0  0  0
    2.9899  -18.7122   27.7103 N   0  0  0  0  0  0  0  0  0  0  0  0
    4.1208  -17.6508   27.8861 C   0  0  0  0  0  0  0  0  0  0  0  0
    4.5432  -17.1170   28.8498 O   0  0  0  0  0  0  0  0  0  0  0  0
    4.7554  -17.1617   26.6037 C   0  0  0  0  0  0  0  0  0  0  0  0
    5.3916  -15.9182   26.4374 C   0  0  0  0  0  0  0  0  0  0  0  0
    5.9215  -15.6848   25.1296 C   0  0  0  0  0  0  0  0  0  0  0  0
    5.7212  -16.7779   24.3223 C   0  0  0  0  0  0  0  0  0  0  0  0
    4.9063  -18.0556   25.1511 S   0  0  0  0  0  0  0  0  0  0  0  0
    1.2434  -20.4665   26.9804 H   0  0  0  0  0  0  0  0  0  0  0  0
    1.4769  -21.5579   28.3668 H   0  0  0  0  0  0  0  0  0  0  0  0
   -2.5984  -25.3926   28.5504 H   0  0  0  0  0  0  0  0  0  0  0  0
   -4.1378  -26.3542   30.2627 H   0  0  0  0  0  0  0  0  0  0  0  0
   -4.6458  -25.0817   32.3244 H   0  0  0  0  0  0  0  0  0  0  0  0
   -3.6832  -22.8224   32.6821 H   0  0  0  0  0  0  0  0  0  0  0  0
   -4.2903  -20.5281   31.7409 H   0  0  0  0  0  0  0  0  0  0  0  0
   -4.3433  -18.7792   33.4439 H   0  0  0  0  0  0  0  0  0  0  0  0
   -2.2415  -17.6918   34.1958 H   0  0  0  0  0  0  0  0  0  0  0  0
   -0.0665  -18.3853   33.2172 H   0  0  0  0  0  0  0  0  0  0  0  0
    0.0303  -20.1569   31.5272 H   0  0  0  0  0  0  0  0  0  0  0  0
    2.9032  -19.0562   26.7644 H   0  0  0  0  0  0  0  0  0  0  0  0
    5.4428  -15.1943   27.2444 H   0  0  0  0  0  0  0  0  0  0  0  0
    6.4178  -14.7759   24.8133 H   0  0  0  0  0  0  0  0  0  0  0  0
    6.0113  -16.9056   23.2881 H   0  0  0  0  0  0  0  0  0  0  0  0
  1  2  2  0
  2  3  1  0
  3  4  1  0
  4  5  1  0
  5  6  2  0
  6  7  1  0
  7  8  2  0
  8  9  1  0
  9 10  2  0
 10 11  1  0
 11 12  2  0
 12 13  1  0
 13 14  1  0
 14 15  2  0
 15 16  1  0
 16 17  2  0
 17 18  1  0
 18 19  2  0
  2 20  1  0
 20 21  1  0
 21 22  2  0
 21 23  1  0
 23 24  2  0
 24 25  1  0
 25 26  2  0
 26 27  1  0
 13  5  1  0
 19 14  1  0
 27 23  1  0
 12  7  1  0
  3 28  1  0
  3 29  1  0
  8 30  1  0
  9 31  1  0
 10 32  1  0
 11 33  1  0
 15 34  1  0
 16 35  1  0
 17 36  1  0
 18 37  1  0
 19 38  1  0
 20 39  1  0
 24 40  1  0
 25 41  1  0
 26 42  1  0
M  END
>  <Energy>  (172) 
94.295830051610821

>  <compound_id>  (172) 
4871

>  <target_id>  (172) 
1

>  <reference_id>  (172) 
76

>  <inspiration_ids>  (172) 
[94, 76]

>  <energy_score>  (172) 
-8.026178622814996

>  <distance_score>  (172) 
17.63329304607288

>  <path>  (172) 
/opt/xchem-fragalysis-2/maxwin/BulkDock/SCRATCH/511018/C4871-P76/C4871-P76.minimised.mol

>  <scratch_subdir>  (172) 
/opt/xchem-fragalysis-2/maxwin/BulkDock/SCRATCH/511018/C4871-P76

>  <fragmenstein_runtime>  (172) 
14.319437980651855

>  <fragmenstein_outcome>  (172) 
too moved

>  <fragmenstein_mode>  (172) 
expansion

>  <fragmenstein_error>  (172) 


$$$$
C4872-P94
     RDKit          3D

 47 50  0  0  0  0  0  0  0  0999 V2000
   10.5821  -12.7660   27.3111 O   0  0  0  0  0  0  0  0  0  0  0  0
   11.1962  -11.5093   27.0600 C   0  0  0  0  0  0  0  0  0  0  0  0
   10.1569  -10.4654   26.6505 C   0  0  0  0  0  0  0  0  0  0  0  0
    9.5660  -10.6735   25.2264 C   0  0  0  0  0  0  0  0  0  0  0  0
    8.9003  -12.0410   25.1652 N   0  0  0  0  0  0  0  0  0  0  0  0
    7.5181  -12.0359   25.7923 C   0  0  0  0  0  0  0  0  0  0  0  0
    6.8310  -13.3031   26.5038 C   0  0  0  0  0  0  0  0  0  0  0  0
    6.1910  -13.1732   27.7705 C   0  0  0  0  0  0  0  0  0  0  0  0
    5.2452  -14.1492   28.3817 C   0  0  0  0  0  0  0  0  0  0  0  0
    4.8564  -15.3702   27.7857 C   0  0  0  0  0  0  0  0  0  0  0  0
    3.8131  -16.2685   28.4413 N   0  0  0  0  0  0  0  0  0  0  0  0
    3.2635  -15.9972   29.7003 C   0  0  0  0  0  0  0  0  0  0  0  0
    2.2317  -16.7353   30.0399 N   0  0  0  0  0  0  0  0  0  0  0  0
    2.1248  -17.6598   29.0525 C   0  0  0  0  0  0  0  0  0  0  0  0
    1.1927  -18.7215   28.9792 C   0  0  0  0  0  0  0  0  0  0  0  0
    1.2706  -19.6269   27.9278 C   0  0  0  0  0  0  0  0  0  0  0  0
    2.2568  -19.4566   26.9598 C   0  0  0  0  0  0  0  0  0  0  0  0
    3.1860  -18.3848   27.0057 C   0  0  0  0  0  0  0  0  0  0  0  0
    3.1167  -17.4604   28.0654 C   0  0  0  0  0  0  0  0  0  0  0  0
    5.5404  -15.5566   26.5578 C   0  0  0  0  0  0  0  0  0  0  0  0
    6.5101  -14.5553   25.9415 C   0  0  0  0  0  0  0  0  0  0  0  0
   10.6431  -10.3784   24.1538 C   0  0  0  0  0  0  0  0  0  0  0  0
   11.2477  -11.1911   23.2083 C   0  0  0  0  0  0  0  0  0  0  0  0
   12.1355  -10.4836   22.3332 C   0  0  0  0  0  0  0  0  0  0  0  0
   12.2349   -9.1532   22.6611 C   0  0  0  0  0  0  0  0  0  0  0  0
   11.2762   -8.7688   24.0168 S   0  0  0  0  0  0  0  0  0  0  0  0
   10.0011  -12.9464   26.5414 H   0  0  0  0  0  0  0  0  0  0  0  0
   11.9744  -11.6405   26.3027 H   0  0  0  0  0  0  0  0  0  0  0  0
   11.6852  -11.1969   27.9881 H   0  0  0  0  0  0  0  0  0  0  0  0
   10.6137   -9.4721   26.7268 H   0  0  0  0  0  0  0  0  0  0  0  0
    9.3442  -10.4778   27.3868 H   0  0  0  0  0  0  0  0  0  0  0  0
    8.7783   -9.9239   25.0625 H   0  0  0  0  0  0  0  0  0  0  0  0
    8.7731  -12.2969   24.1859 H   0  0  0  0  0  0  0  0  0  0  0  0
    6.8229  -11.7223   25.0071 H   0  0  0  0  0  0  0  0  0  0  0  0
    7.4856  -11.2466   26.5516 H   0  0  0  0  0  0  0  0  0  0  0  0
    6.3523  -12.2530   28.3371 H   0  0  0  0  0  0  0  0  0  0  0  0
    4.8377  -13.8316   29.3390 H   0  0  0  0  0  0  0  0  0  0  0  0
    3.6534  -15.2136   30.3320 H   0  0  0  0  0  0  0  0  0  0  0  0
    0.4515  -18.8340   29.7641 H   0  0  0  0  0  0  0  0  0  0  0  0
    0.5898  -20.4713   27.8824 H   0  0  0  0  0  0  0  0  0  0  0  0
    2.3215  -20.1658   26.1334 H   0  0  0  0  0  0  0  0  0  0  0  0
    3.9325  -18.2929   26.2231 H   0  0  0  0  0  0  0  0  0  0  0  0
    5.3675  -16.4630   25.9783 H   0  0  0  0  0  0  0  0  0  0  0  0
    6.9369  -14.8326   24.9769 H   0  0  0  0  0  0  0  0  0  0  0  0
   11.0442  -12.2527   23.1230 H   0  0  0  0  0  0  0  0  0  0  0  0
   12.6861  -10.9423   21.5197 H   0  0  0  0  0  0  0  0  0  0  0  0
   12.8483   -8.3976   22.1887 H   0  0  0  0  0  0  0  0  0  0  0  0
  1  2  1  0
  2  3  1  0
  3  4  1  0
  4  5  1  0
  5  6  1  0
  6  7  1  0
  7  8  2  0
  8  9  1  0
  9 10  2  0
 10 11  1  0
 11 12  1  0
 12 13  2  0
 13 14  1  0
 14 15  2  0
 15 16  1  0
 16 17  2  0
 17 18  1  0
 18 19  2  0
 10 20  1  0
 20 21  2  0
  4 22  1  0
 22 23  2  0
 23 24  1  0
 24 25  2  0
 25 26  1  0
 21  7  1  0
 26 22  1  0
 19 11  1  0
 19 14  1  0
  1 27  1  0
  2 28  1  0
  2 29  1  0
  3 30  1  0
  3 31  1  0
  4 32  1  0
  5 33  1  0
  6 34  1  0
  6 35  1  0
  8 36  1  0
  9 37  1  0
 12 38  1  0
 15 39  1  0
 16 40  1  0
 17 41  1  0
 18 42  1  0
 20 43  1  0
 21 44  1  0
 23 45  1  0
 24 46  1  0
 25 47  1  0
M  END
>  <Energy>  (173) 
102.76408804766723

>  <compound_id>  (173) 
4872

>  <target_id>  (173) 
1

>  <reference_id>  (173) 
94

>  <inspiration_ids>  (173) 
[94, 76]

>  <energy_score>  (173) 
-13.062433748884303

>  <distance_score>  (173) 
16.31271999337188

>  <path>  (173) 
/opt/xchem-fragalysis-2/maxwin/BulkDock/SCRATCH/511018/C4872-P94/C4872-P94.minimised.mol

>  <scratch_subdir>  (173) 
/opt/xchem-fragalysis-2/maxwin/BulkDock/SCRATCH/511018/C4872-P94

>  <fragmenstein_runtime>  (173) 
26.011057138442993

>  <fragmenstein_outcome>  (173) 
too moved

>  <fragmenstein_mode>  (173) 
expansion

>  <fragmenstein_error>  (173) 


$$$$
C4872-P76
     RDKit          3D

 47 50  0  0  0  0  0  0  0  0999 V2000
   12.4104   -4.3010   21.9702 O   0  0  0  0  0  0  0  0  0  0  0  0
   12.4899   -4.6038   20.5783 C   0  0  0  0  0  0  0  0  0  0  0  0
   11.3592   -5.6188   20.1172 C   0  0  0  0  0  0  0  0  0  0  0  0
    9.6581   -5.5896   19.0694 C   0  0  0  0  0  0  0  0  0  0  0  0
    7.5994   -6.2077   18.9749 N   0  0  0  0  0  0  0  0  0  0  0  0
    6.2054   -5.9274   17.8327 C   0  0  0  0  0  0  0  0  0  0  0  0
    4.7491   -6.8727   17.3778 C   0  0  0  0  0  0  0  0  0  0  0  0
    3.4049   -6.5049   17.6799 C   0  0  0  0  0  0  0  0  0  0  0  0
    2.1830   -7.4108   17.4827 C   0  0  0  0  0  0  0  0  0  0  0  0
    2.2224   -8.7191   16.9193 C   0  0  0  0  0  0  0  0  0  0  0  0
    1.0007   -9.6131   16.7526 N   0  0  0  0  0  0  0  0  0  0  0  0
   -0.3089   -9.1053   16.7382 C   0  0  0  0  0  0  0  0  0  0  0  0
   -1.2652  -10.0084   16.8050 N   0  0  0  0  0  0  0  0  0  0  0  0
   -0.6231  -11.2162   16.7768 C   0  0  0  0  0  0  0  0  0  0  0  0
   -1.2093  -12.5039   16.8884 C   0  0  0  0  0  0  0  0  0  0  0  0
   -0.3946  -13.6322   16.8922 C   0  0  0  0  0  0  0  0  0  0  0  0
    0.9863  -13.4662   16.8072 C   0  0  0  0  0  0  0  0  0  0  0  0
    1.5960  -12.1861   16.7007 C   0  0  0  0  0  0  0  0  0  0  0  0
    0.7811  -11.0353   16.6741 C   0  0  0  0  0  0  0  0  0  0  0  0
    3.5135   -8.9992   16.4468 C   0  0  0  0  0  0  0  0  0  0  0  0
    4.7005   -8.0748   16.5994 C   0  0  0  0  0  0  0  0  0  0  0  0
   10.9915   -5.0099   17.5375 C   0  0  0  0  0  0  0  0  0  0  0  0
   12.4534   -4.7591   17.6726 C   0  0  0  0  0  0  0  0  0  0  0  0
   13.2692   -3.9435   16.8383 C   0  0  0  0  0  0  0  0  0  0  0  0
   12.5423   -3.3188   15.8956 C   0  0  0  0  0  0  0  0  0  0  0  0
   10.9565   -3.8286   15.8820 S   0  0  0  0  0  0  0  0  0  0  0  0
   12.6200   -3.3464   22.0693 H   0  0  0  0  0  0  0  0  0  0  0  0
   13.4608   -5.1007   20.4627 H   0  0  0  0  0  0  0  0  0  0  0  0
   12.5611   -3.6766   20.0255 H   0  0  0  0  0  0  0  0  0  0  0  0
   11.7148   -6.5450   20.5769 H   0  0  0  0  0  0  0  0  0  0  0  0
   10.6203   -5.3098   20.6811 H   0  0  0  0  0  0  0  0  0  0  0  0
    9.7021   -6.4703   18.7269 H   0  0  0  0  0  0  0  0  0  0  0  0
    7.3100   -5.8415   19.9105 H   0  0  0  0  0  0  0  0  0  0  0  0
    6.6265   -5.8497   16.8415 H   0  0  0  0  0  0  0  0  0  0  0  0
    5.7085   -5.1877   18.4152 H   0  0  0  0  0  0  0  0  0  0  0  0
    3.2170   -5.5549   18.1824 H   0  0  0  0  0  0  0  0  0  0  0  0
    1.2437   -6.9960   17.8491 H   0  0  0  0  0  0  0  0  0  0  0  0
   -0.4838   -8.0395   16.6926 H   0  0  0  0  0  0  0  0  0  0  0  0
   -2.2867  -12.5883   16.9749 H   0  0  0  0  0  0  0  0  0  0  0  0
   -0.8277  -14.6241   16.9749 H   0  0  0  0  0  0  0  0  0  0  0  0
    1.6305  -14.3441   16.8340 H   0  0  0  0  0  0  0  0  0  0  0  0
    2.6794  -12.0981   16.6973 H   0  0  0  0  0  0  0  0  0  0  0  0
    3.6985   -9.9299   15.9082 H   0  0  0  0  0  0  0  0  0  0  0  0
    5.5892   -8.4574   16.1022 H   0  0  0  0  0  0  0  0  0  0  0  0
   12.9835   -5.1531   18.5058 H   0  0  0  0  0  0  0  0  0  0  0  0
   14.3307   -3.7837   16.9832 H   0  0  0  0  0  0  0  0  0  0  0  0
   12.8900   -2.6102   15.1555 H   0  0  0  0  0  0  0  0  0  0  0  0
  1  2  1  0
  2  3  1  0
  3  4  1  0
  4  5  1  0
  5  6  1  0
  6  7  1  0
  7  8  2  0
  8  9  1  0
  9 10  2  0
 10 11  1  0
 11 12  1  0
 12 13  2  0
 13 14  1  0
 14 15  2  0
 15 16  1  0
 16 17  2  0
 17 18  1  0
 18 19  2  0
 10 20  1  0
 20 21  2  0
  4 22  1  0
 22 23  2  0
 23 24  1  0
 24 25  2  0
 25 26  1  0
 21  7  1  0
 26 22  1  0
 19 11  1  0
 19 14  1  0
  1 27  1  0
  2 28  1  0
  2 29  1  0
  3 30  1  0
  3 31  1  0
  4 32  1  0
  5 33  1  0
  6 34  1  0
  6 35  1  0
  8 36  1  0
  9 37  1  0
 12 38  1  0
 15 39  1  0
 16 40  1  0
 17 41  1  0
 18 42  1  0
 20 43  1  0
 21 44  1  0
 23 45  1  0
 24 46  1  0
 25 47  1  0
M  END
>  <Energy>  (174) 
673.55180806421436

>  <compound_id>  (174) 
4872

>  <target_id>  (174) 
1

>  <reference_id>  (174) 
76

>  <inspiration_ids>  (174) 
[94, 76]

>  <energy_score>  (174) 
557.72528626766

>  <distance_score>  (174) 
17.283846334361513

>  <path>  (174) 
/opt/xchem-fragalysis-2/maxwin/BulkDock/SCRATCH/511018/C4872-P76/C4872-P76.minimised.mol

>  <scratch_subdir>  (174) 
/opt/xchem-fragalysis-2/maxwin/BulkDock/SCRATCH/511018/C4872-P76

>  <fragmenstein_runtime>  (174) 
15.26613450050354

>  <fragmenstein_outcome>  (174) 
too moved

>  <fragmenstein_mode>  (174) 
expansion

>  <fragmenstein_error>  (174) 


$$$$
C4873-P94
     RDKit          3D

 50 53  0  0  0  0  0  0  0  0999 V2000
    4.2814   -7.6144   22.9170 C   0  0  0  0  0  0  0  0  0  0  0  0
    3.0452   -8.5737   22.8568 N   0  0  0  0  0  0  0  0  0  0  0  0
    1.7925   -7.8867   22.2508 C   0  0  0  0  0  0  0  0  0  0  0  0
    2.0374   -6.3634   21.9331 C   0  0  0  0  0  0  0  0  0  0  0  0
    2.0155   -5.5655   22.8303 O   0  0  0  0  0  0  0  0  0  0  0  0
    2.3540   -6.1992   20.5360 N   0  0  0  0  0  0  0  0  0  0  0  0
    2.8316   -5.0546   19.8038 C   0  0  0  0  0  0  0  0  0  0  0  0
    3.5378   -5.5226   18.5645 C   0  0  0  0  0  0  0  0  0  0  0  0
    4.5889   -6.4153   18.4374 C   0  0  0  0  0  0  0  0  0  0  0  0
    4.8525   -6.7396   17.0774 C   0  0  0  0  0  0  0  0  0  0  0  0
    4.0849   -6.0037   16.2086 C   0  0  0  0  0  0  0  0  0  0  0  0
    3.0334   -4.9425   17.0295 S   0  0  0  0  0  0  0  0  0  0  0  0
    3.3490  -10.5882   22.8644 C   0  0  0  0  0  0  0  0  0  0  0  0
    2.8670  -12.4165   23.5837 C   0  0  0  0  0  0  0  0  0  0  0  0
    3.2053  -13.5361   24.6600 C   0  0  0  0  0  0  0  0  0  0  0  0
    2.4285  -13.9739   26.3650 C   0  0  0  0  0  0  0  0  0  0  0  0
    1.0116  -14.1514   26.8110 C   0  0  0  0  0  0  0  0  0  0  0  0
   -0.2691  -15.0702   28.1773 N   0  0  0  0  0  0  0  0  0  0  0  0
    0.9792  -16.2480   28.7867 C   0  0  0  0  0  0  0  0  0  0  0  0
    1.3496  -16.2763   30.0373 N   0  0  0  0  0  0  0  0  0  0  0  0
    0.3527  -15.7438   30.7405 C   0  0  0  0  0  0  0  0  0  0  0  0
    0.1499  -15.8452   32.1422 C   0  0  0  0  0  0  0  0  0  0  0  0
   -1.0837  -15.5259   32.7368 C   0  0  0  0  0  0  0  0  0  0  0  0
   -2.1372  -15.0635   31.9687 C   0  0  0  0  0  0  0  0  0  0  0  0
   -1.9564  -14.9032   30.5930 C   0  0  0  0  0  0  0  0  0  0  0  0
   -0.6579  -15.2506   29.9022 C   0  0  0  0  0  0  0  0  0  0  0  0
    0.9997  -13.2169   25.8965 C   0  0  0  0  0  0  0  0  0  0  0  0
    1.8692  -12.4291   24.4455 C   0  0  0  0  0  0  0  0  0  0  0  0
    4.1132   -6.8564   23.6912 H   0  0  0  0  0  0  0  0  0  0  0  0
    5.1975   -8.1619   23.1816 H   0  0  0  0  0  0  0  0  0  0  0  0
    4.4834   -7.0876   21.9801 H   0  0  0  0  0  0  0  0  0  0  0  0
    0.9588   -7.8854   22.9630 H   0  0  0  0  0  0  0  0  0  0  0  0
    1.4452   -8.4064   21.3507 H   0  0  0  0  0  0  0  0  0  0  0  0
    2.1875   -7.0760   20.0541 H   0  0  0  0  0  0  0  0  0  0  0  0
    3.5099   -4.4872   20.4493 H   0  0  0  0  0  0  0  0  0  0  0  0
    1.9648   -4.4233   19.5847 H   0  0  0  0  0  0  0  0  0  0  0  0
    5.0732   -6.8882   19.2832 H   0  0  0  0  0  0  0  0  0  0  0  0
    5.5282   -7.5098   16.7472 H   0  0  0  0  0  0  0  0  0  0  0  0
    4.0567   -6.0633   15.1304 H   0  0  0  0  0  0  0  0  0  0  0  0
    4.3614  -10.9219   22.4407 H   0  0  0  0  0  0  0  0  0  0  0  0
    2.7230  -10.0031   22.1155 H   0  0  0  0  0  0  0  0  0  0  0  0
    4.1130  -14.1376   24.6844 H   0  0  0  0  0  0  0  0  0  0  0  0
    3.2494  -14.3478   27.0523 H   0  0  0  0  0  0  0  0  0  0  0  0
    1.5654  -16.6548   27.9689 H   0  0  0  0  0  0  0  0  0  0  0  0
    0.9472  -16.2653   32.7485 H   0  0  0  0  0  0  0  0  0  0  0  0
   -1.2093  -15.6592   33.8081 H   0  0  0  0  0  0  0  0  0  0  0  0
   -3.0913  -14.8197   32.4258 H   0  0  0  0  0  0  0  0  0  0  0  0
   -2.7788  -14.5206   30.0072 H   0  0  0  0  0  0  0  0  0  0  0  0
   -0.0886  -13.1642   25.9335 H   0  0  0  0  0  0  0  0  0  0  0  0
    1.3261  -11.6987   23.8786 H   0  0  0  0  0  0  0  0  0  0  0  0
  1  2  1  0
  2  3  1  0
  3  4  1  0
  4  5  2  0
  4  6  1  0
  6  7  1  0
  7  8  1  0
  8  9  2  0
  9 10  1  0
 10 11  2  0
 11 12  1  0
  2 13  1  0
 13 14  1  0
 14 15  2  0
 15 16  1  0
 16 17  2  0
 17 18  1  0
 18 19  1  0
 19 20  2  0
 20 21  1  0
 21 22  2  0
 22 23  1  0
 23 24  2  0
 24 25  1  0
 25 26  2  0
 17 27  1  0
 27 28  2  0
 12  8  1  0
 28 14  1  0
 26 18  1  0
 26 21  1  0
  1 29  1  0
  1 30  1  0
  1 31  1  0
  3 32  1  0
  3 33  1  0
  6 34  1  0
  7 35  1  0
  7 36  1  0
  9 37  1  0
 10 38  1  0
 11 39  1  0
 13 40  1  0
 13 41  1  0
 15 42  1  0
 16 43  1  0
 19 44  1  0
 22 45  1  0
 23 46  1  0
 24 47  1  0
 25 48  1  0
 27 49  1  0
 28 50  1  0
M  END
>  <Energy>  (175) 
1045.3167245572483

>  <compound_id>  (175) 
4873

>  <target_id>  (175) 
1

>  <reference_id>  (175) 
94

>  <inspiration_ids>  (175) 
[94, 76]

>  <energy_score>  (175) 
909.7664207974934

>  <distance_score>  (175) 
14.509772950541752

>  <path>  (175) 
/opt/xchem-fragalysis-2/maxwin/BulkDock/SCRATCH/511018/C4873-P94/C4873-P94.minimised.mol

>  <scratch_subdir>  (175) 
/opt/xchem-fragalysis-2/maxwin/BulkDock/SCRATCH/511018/C4873-P94

>  <fragmenstein_runtime>  (175) 
64.80545282363892

>  <fragmenstein_outcome>  (175) 
too moved

>  <fragmenstein_mode>  (175) 
expansion

>  <fragmenstein_error>  (175) 


$$$$
C4873-P76
     RDKit          3D

 50 53  0  0  0  0  0  0  0  0999 V2000
    6.3586  -10.4520   23.4266 C   0  0  0  0  0  0  0  0  0  0  0  0
    5.5366  -10.5024   22.1572 N   0  0  0  0  0  0  0  0  0  0  0  0
    6.8764   -9.0671   21.1695 C   0  0  0  0  0  0  0  0  0  0  0  0
    8.4896   -8.2836   19.8002 C   0  0  0  0  0  0  0  0  0  0  0  0
    8.9085   -9.2079   19.1595 O   0  0  0  0  0  0  0  0  0  0  0  0
    9.3920   -6.4534   19.1050 N   0  0  0  0  0  0  0  0  0  0  0  0
   10.7370   -5.9879   17.4148 C   0  0  0  0  0  0  0  0  0  0  0  0
   12.1158   -7.2298   16.3466 C   0  0  0  0  0  0  0  0  0  0  0  0
   11.9984   -9.0516   16.1198 C   0  0  0  0  0  0  0  0  0  0  0  0
   12.6519  -10.1296   15.3572 C   0  0  0  0  0  0  0  0  0  0  0  0
   13.6535   -9.5711   14.6119 C   0  0  0  0  0  0  0  0  0  0  0  0
   14.1445   -7.4839   15.2979 S   0  0  0  0  0  0  0  0  0  0  0  0
    3.6769  -11.5869   22.6814 C   0  0  0  0  0  0  0  0  0  0  0  0
    2.2226  -12.6136   24.0260 C   0  0  0  0  0  0  0  0  0  0  0  0
    1.3509  -12.5794   25.7097 C   0  0  0  0  0  0  0  0  0  0  0  0
   -0.1421  -13.0615   26.7790 C   0  0  0  0  0  0  0  0  0  0  0  0
   -1.6371  -13.9796   26.4759 C   0  0  0  0  0  0  0  0  0  0  0  0
   -2.3311  -15.2506   27.6868 N   0  0  0  0  0  0  0  0  0  0  0  0
   -2.0997  -14.5993   29.1417 C   0  0  0  0  0  0  0  0  0  0  0  0
   -2.9265  -14.9683   30.1320 N   0  0  0  0  0  0  0  0  0  0  0  0
   -3.8636  -16.0570   29.7334 C   0  0  0  0  0  0  0  0  0  0  0  0
   -5.1288  -16.3171   30.4773 C   0  0  0  0  0  0  0  0  0  0  0  0
   -6.2545  -17.0879   30.0727 C   0  0  0  0  0  0  0  0  0  0  0  0
   -6.2359  -17.8605   28.8904 C   0  0  0  0  0  0  0  0  0  0  0  0
   -5.0186  -17.9013   27.7059 C   0  0  0  0  0  0  0  0  0  0  0  0
   -3.6687  -16.5375   28.0522 C   0  0  0  0  0  0  0  0  0  0  0  0
   -1.0090  -14.2179   24.7920 C   0  0  0  0  0  0  0  0  0  0  0  0
    0.7358  -13.9020   24.0141 C   0  0  0  0  0  0  0  0  0  0  0  0
    7.4028  -10.6964   23.2068 H   0  0  0  0  0  0  0  0  0  0  0  0
    6.3041   -9.4485   23.8574 H   0  0  0  0  0  0  0  0  0  0  0  0
    6.1276  -11.1946   24.1833 H   0  0  0  0  0  0  0  0  0  0  0  0
    7.6736   -9.5137   21.7730 H   0  0  0  0  0  0  0  0  0  0  0  0
    6.6873   -9.7723   20.3279 H   0  0  0  0  0  0  0  0  0  0  0  0
    9.0901   -5.6931   19.7182 H   0  0  0  0  0  0  0  0  0  0  0  0
   10.7394   -5.0073   16.8106 H   0  0  0  0  0  0  0  0  0  0  0  0
   11.4743   -5.1551   17.8773 H   0  0  0  0  0  0  0  0  0  0  0  0
   11.1778   -9.6222   16.5684 H   0  0  0  0  0  0  0  0  0  0  0  0
   12.3939  -11.1790   15.3973 H   0  0  0  0  0  0  0  0  0  0  0  0
   14.5171  -10.0197   14.1210 H   0  0  0  0  0  0  0  0  0  0  0  0
    3.2295  -10.6511   22.9135 H   0  0  0  0  0  0  0  0  0  0  0  0
    3.9842  -12.3003   23.3898 H   0  0  0  0  0  0  0  0  0  0  0  0
    1.3517  -11.6090   26.2367 H   0  0  0  0  0  0  0  0  0  0  0  0
   -0.0332  -12.6804   27.8018 H   0  0  0  0  0  0  0  0  0  0  0  0
   -1.3273  -13.8506   29.1718 H   0  0  0  0  0  0  0  0  0  0  0  0
   -5.1872  -15.8091   31.4410 H   0  0  0  0  0  0  0  0  0  0  0  0
   -7.0767  -17.1817   30.7712 H   0  0  0  0  0  0  0  0  0  0  0  0
   -7.0511  -18.5711   28.7578 H   0  0  0  0  0  0  0  0  0  0  0  0
   -5.2130  -18.8494   27.1972 H   0  0  0  0  0  0  0  0  0  0  0  0
   -1.4897  -13.2169   25.0410 H   0  0  0  0  0  0  0  0  0  0  0  0
    0.2107  -14.1434   23.0024 H   0  0  0  0  0  0  0  0  0  0  0  0
  1  2  1  0
  2  3  1  0
  3  4  1  0
  4  5  2  0
  4  6  1  0
  6  7  1  0
  7  8  1  0
  8  9  2  0
  9 10  1  0
 10 11  2  0
 11 12  1  0
  2 13  1  0
 13 14  1  0
 14 15  2  0
 15 16  1  0
 16 17  2  0
 17 18  1  0
 18 19  1  0
 19 20  2  0
 20 21  1  0
 21 22  2  0
 22 23  1  0
 23 24  2  0
 24 25  1  0
 25 26  2  0
 17 27  1  0
 27 28  2  0
 12  8  1  0
 28 14  1  0
 26 18  1  0
 26 21  1  0
  1 29  1  0
  1 30  1  0
  1 31  1  0
  3 32  1  0
  3 33  1  0
  6 34  1  0
  7 35  1  0
  7 36  1  0
  9 37  1  0
 10 38  1  0
 11 39  1  0
 13 40  1  0
 13 41  1  0
 15 42  1  0
 16 43  1  0
 19 44  1  0
 22 45  1  0
 23 46  1  0
 24 47  1  0
 25 48  1  0
 27 49  1  0
 28 50  1  0
M  END
>  <Energy>  (176) 
2945.0791156919659

>  <compound_id>  (176) 
4873

>  <target_id>  (176) 
1

>  <reference_id>  (176) 
76

>  <inspiration_ids>  (176) 
[94, 76]

>  <energy_score>  (176) 
2809.5288119321413

>  <distance_score>  (176) 
11.578270488751834

>  <path>  (176) 
/opt/xchem-fragalysis-2/maxwin/BulkDock/SCRATCH/511018/C4873-P76/C4873-P76.minimised.mol

>  <scratch_subdir>  (176) 
/opt/xchem-fragalysis-2/maxwin/BulkDock/SCRATCH/511018/C4873-P76

>  <fragmenstein_runtime>  (176) 
16.171149969100952

>  <fragmenstein_outcome>  (176) 
too moved

>  <fragmenstein_mode>  (176) 
expansion

>  <fragmenstein_error>  (176) 


$$$$
C4874-P94
     RDKit          3D

 46 49  0  0  0  0  0  0  0  0999 V2000
    5.1193  -18.8193   27.1162 C   0  0  0  0  0  0  0  0  0  0  0  0
    3.8761  -18.2100   26.5629 N   0  0  0  0  0  0  0  0  0  0  0  0
    4.8464  -17.9058   25.3347 C   0  0  0  0  0  0  0  0  0  0  0  0
    5.5361  -16.5136   25.1198 C   0  0  0  0  0  0  0  0  0  0  0  0
    5.5689  -15.3322   25.8443 C   0  0  0  0  0  0  0  0  0  0  0  0
    6.2970  -14.2702   25.1979 C   0  0  0  0  0  0  0  0  0  0  0  0
    6.8120  -14.6522   23.9836 C   0  0  0  0  0  0  0  0  0  0  0  0
    6.4409  -16.2841   23.6373 S   0  0  0  0  0  0  0  0  0  0  0  0
    2.7439  -19.1596   26.6840 C   0  0  0  0  0  0  0  0  0  0  0  0
    2.3384  -19.9965   25.9113 O   0  0  0  0  0  0  0  0  0  0  0  0
    2.0336  -19.1279   28.0977 C   0  0  0  0  0  0  0  0  0  0  0  0
    0.2703  -18.6435   28.2011 S   0  0  0  0  0  0  0  0  0  0  0  0
   -0.8722  -19.9941   28.2887 C   0  0  0  0  0  0  0  0  0  0  0  0
   -0.6904  -21.1931   27.7816 N   0  0  0  0  0  0  0  0  0  0  0  0
   -1.9511  -21.6146   27.4134 C   0  0  0  0  0  0  0  0  0  0  0  0
   -2.3195  -22.7626   26.6913 C   0  0  0  0  0  0  0  0  0  0  0  0
   -3.6418  -22.9074   26.2597 C   0  0  0  0  0  0  0  0  0  0  0  0
   -4.6009  -21.9525   26.5703 C   0  0  0  0  0  0  0  0  0  0  0  0
   -4.2584  -20.8208   27.3154 C   0  0  0  0  0  0  0  0  0  0  0  0
   -2.9286  -20.6771   27.7497 C   0  0  0  0  0  0  0  0  0  0  0  0
   -2.2396  -19.7792   28.5691 N   0  0  0  0  0  0  0  0  0  0  0  0
   -2.8082  -18.9574   29.5908 C   0  0  0  0  0  0  0  0  0  0  0  0
   -2.1324  -18.8369   30.8130 C   0  0  0  0  0  0  0  0  0  0  0  0
   -2.6949  -18.1182   31.8702 C   0  0  0  0  0  0  0  0  0  0  0  0
   -3.9425  -17.5225   31.7193 C   0  0  0  0  0  0  0  0  0  0  0  0
   -4.6185  -17.6327   30.5078 C   0  0  0  0  0  0  0  0  0  0  0  0
   -4.0516  -18.3401   29.4434 C   0  0  0  0  0  0  0  0  0  0  0  0
    5.3633  -19.7942   26.6676 H   0  0  0  0  0  0  0  0  0  0  0  0
    5.9745  -18.1363   27.2182 H   0  0  0  0  0  0  0  0  0  0  0  0
    4.8750  -19.0787   28.1566 H   0  0  0  0  0  0  0  0  0  0  0  0
    4.1316  -17.9726   24.5033 H   0  0  0  0  0  0  0  0  0  0  0  0
    5.5251  -18.7262   25.0347 H   0  0  0  0  0  0  0  0  0  0  0  0
    5.0640  -15.2186   26.7964 H   0  0  0  0  0  0  0  0  0  0  0  0
    6.4157  -13.2769   25.6109 H   0  0  0  0  0  0  0  0  0  0  0  0
    7.3859  -14.0600   23.2844 H   0  0  0  0  0  0  0  0  0  0  0  0
    2.1647  -20.1158   28.5526 H   0  0  0  0  0  0  0  0  0  0  0  0
    2.5796  -18.4166   28.7268 H   0  0  0  0  0  0  0  0  0  0  0  0
   -1.5596  -23.4847   26.4103 H   0  0  0  0  0  0  0  0  0  0  0  0
   -3.9029  -23.7550   25.6336 H   0  0  0  0  0  0  0  0  0  0  0  0
   -5.6183  -22.0852   26.2136 H   0  0  0  0  0  0  0  0  0  0  0  0
   -5.0039  -20.0637   27.5055 H   0  0  0  0  0  0  0  0  0  0  0  0
   -1.1752  -19.3257   30.9805 H   0  0  0  0  0  0  0  0  0  0  0  0
   -2.1700  -18.0429   32.8187 H   0  0  0  0  0  0  0  0  0  0  0  0
   -4.3963  -16.9831   32.5464 H   0  0  0  0  0  0  0  0  0  0  0  0
   -5.5984  -17.1751   30.3957 H   0  0  0  0  0  0  0  0  0  0  0  0
   -4.5986  -18.3549   28.5118 H   0  0  0  0  0  0  0  0  0  0  0  0
  1  2  1  0
  2  3  1  0
  3  4  1  0
  4  5  2  0
  5  6  1  0
  6  7  2  0
  7  8  1  0
  2  9  1  0
  9 10  2  0
  9 11  1  0
 11 12  1  0
 12 13  1  0
 13 14  2  0
 14 15  1  0
 15 16  2  0
 16 17  1  0
 17 18  2  0
 18 19  1  0
 19 20  2  0
 20 21  1  0
 21 22  1  0
 22 23  2  0
 23 24  1  0
 24 25  2  0
 25 26  1  0
 26 27  2  0
  8  4  1  0
 21 13  1  0
 27 22  1  0
 20 15  1  0
  1 28  1  0
  1 29  1  0
  1 30  1  0
  3 31  1  0
  3 32  1  0
  5 33  1  0
  6 34  1  0
  7 35  1  0
 11 36  1  0
 11 37  1  0
 16 38  1  0
 17 39  1  0
 18 40  1  0
 19 41  1  0
 23 42  1  0
 24 43  1  0
 25 44  1  0
 26 45  1  0
 27 46  1  0
M  END
>  <Energy>  (177) 
179.51096592860713

>  <compound_id>  (177) 
4874

>  <target_id>  (177) 
1

>  <reference_id>  (177) 
94

>  <inspiration_ids>  (177) 
[94, 76]

>  <energy_score>  (177) 
58.19248710319283

>  <distance_score>  (177) 
17.02320385907003

>  <path>  (177) 
/opt/xchem-fragalysis-2/maxwin/BulkDock/SCRATCH/511018/C4874-P94/C4874-P94.minimised.mol

>  <scratch_subdir>  (177) 
/opt/xchem-fragalysis-2/maxwin/BulkDock/SCRATCH/511018/C4874-P94

>  <fragmenstein_runtime>  (177) 
32.142916440963745

>  <fragmenstein_outcome>  (177) 
too moved

>  <fragmenstein_mode>  (177) 
expansion

>  <fragmenstein_error>  (177) 


$$$$
C4874-P76
     RDKit          3D

 46 49  0  0  0  0  0  0  0  0999 V2000
    2.3935  -11.9942   23.3436 C   0  0  0  0  0  0  0  0  0  0  0  0
    2.3503  -13.3684   24.0043 N   0  0  0  0  0  0  0  0  0  0  0  0
    3.9662  -13.1389   24.0437 C   0  0  0  0  0  0  0  0  0  0  0  0
    5.0352  -12.6288   22.8704 C   0  0  0  0  0  0  0  0  0  0  0  0
    6.1563  -11.8093   23.0527 C   0  0  0  0  0  0  0  0  0  0  0  0
    6.8323  -11.4583   21.8422 C   0  0  0  0  0  0  0  0  0  0  0  0
    6.2761  -12.0921   20.7593 C   0  0  0  0  0  0  0  0  0  0  0  0
    4.9867  -13.1272   21.2168 S   0  0  0  0  0  0  0  0  0  0  0  0
    1.0959  -13.3885   25.3992 C   0  0  0  0  0  0  0  0  0  0  0  0
    1.2333  -13.1361   26.5963 O   0  0  0  0  0  0  0  0  0  0  0  0
   -0.6212  -14.1141   24.5248 C   0  0  0  0  0  0  0  0  0  0  0  0
   -2.4255  -15.5740   25.0238 S   0  0  0  0  0  0  0  0  0  0  0  0
   -2.1456  -17.5348   26.2620 C   0  0  0  0  0  0  0  0  0  0  0  0
   -0.9383  -17.9807   26.7047 N   0  0  0  0  0  0  0  0  0  0  0  0
   -0.8090  -19.3411   26.4565 C   0  0  0  0  0  0  0  0  0  0  0  0
    0.2498  -20.2354   26.6432 C   0  0  0  0  0  0  0  0  0  0  0  0
    0.1115  -21.5554   26.1746 C   0  0  0  0  0  0  0  0  0  0  0  0
   -1.0337  -21.9730   25.4950 C   0  0  0  0  0  0  0  0  0  0  0  0
   -2.1008  -21.1009   25.3117 C   0  0  0  0  0  0  0  0  0  0  0  0
   -1.9559  -19.8122   25.8599 C   0  0  0  0  0  0  0  0  0  0  0  0
   -2.9014  -18.8805   26.3625 N   0  0  0  0  0  0  0  0  0  0  0  0
   -3.6587  -19.5773   27.4886 C   0  0  0  0  0  0  0  0  0  0  0  0
   -4.6401  -20.4898   27.0216 C   0  0  0  0  0  0  0  0  0  0  0  0
   -4.5276  -21.8656   27.2692 C   0  0  0  0  0  0  0  0  0  0  0  0
   -3.5293  -22.3447   28.1105 C   0  0  0  0  0  0  0  0  0  0  0  0
   -2.7521  -21.4437   28.8190 C   0  0  0  0  0  0  0  0  0  0  0  0
   -2.8307  -20.0765   28.5263 C   0  0  0  0  0  0  0  0  0  0  0  0
    1.3716  -11.6773   23.2519 H   0  0  0  0  0  0  0  0  0  0  0  0
    2.7737  -12.1936   22.3286 H   0  0  0  0  0  0  0  0  0  0  0  0
    3.0115  -11.1583   23.0426 H   0  0  0  0  0  0  0  0  0  0  0  0
    4.4875  -13.3270   24.9885 H   0  0  0  0  0  0  0  0  0  0  0  0
    4.1205  -14.2018   23.7476 H   0  0  0  0  0  0  0  0  0  0  0  0
    6.4606  -11.4472   24.0264 H   0  0  0  0  0  0  0  0  0  0  0  0
    7.6906  -10.8030   21.7785 H   0  0  0  0  0  0  0  0  0  0  0  0
    6.5804  -12.0401   19.7231 H   0  0  0  0  0  0  0  0  0  0  0  0
   -0.5544  -14.0704   23.4373 H   0  0  0  0  0  0  0  0  0  0  0  0
    0.1702  -14.7297   24.5594 H   0  0  0  0  0  0  0  0  0  0  0  0
    1.1658  -19.9053   27.1219 H   0  0  0  0  0  0  0  0  0  0  0  0
    0.9325  -22.2549   26.3207 H   0  0  0  0  0  0  0  0  0  0  0  0
   -1.1046  -22.9977   25.1376 H   0  0  0  0  0  0  0  0  0  0  0  0
   -3.0317  -21.4420   24.8731 H   0  0  0  0  0  0  0  0  0  0  0  0
   -5.3892  -20.2165   26.2896 H   0  0  0  0  0  0  0  0  0  0  0  0
   -5.2007  -22.5593   26.7729 H   0  0  0  0  0  0  0  0  0  0  0  0
   -3.4042  -23.4094   28.2784 H   0  0  0  0  0  0  0  0  0  0  0  0
   -2.0059  -21.8007   29.5246 H   0  0  0  0  0  0  0  0  0  0  0  0
   -2.0058  -19.5026   28.9284 H   0  0  0  0  0  0  0  0  0  0  0  0
  1  2  1  0
  2  3  1  0
  3  4  1  0
  4  5  2  0
  5  6  1  0
  6  7  2  0
  7  8  1  0
  2  9  1  0
  9 10  2  0
  9 11  1  0
 11 12  1  0
 12 13  1  0
 13 14  2  0
 14 15  1  0
 15 16  2  0
 16 17  1  0
 17 18  2  0
 18 19  1  0
 19 20  2  0
 20 21  1  0
 21 22  1  0
 22 23  2  0
 23 24  1  0
 24 25  2  0
 25 26  1  0
 26 27  2  0
  8  4  1  0
 21 13  1  0
 27 22  1  0
 20 15  1  0
  1 28  1  0
  1 29  1  0
  1 30  1  0
  3 31  1  0
  3 32  1  0
  5 33  1  0
  6 34  1  0
  7 35  1  0
 11 36  1  0
 11 37  1  0
 16 38  1  0
 17 39  1  0
 18 40  1  0
 19 41  1  0
 23 42  1  0
 24 43  1  0
 25 44  1  0
 26 45  1  0
 27 46  1  0
M  END
>  <Energy>  (178) 
683.40624949009521

>  <compound_id>  (178) 
4874

>  <target_id>  (178) 
1

>  <reference_id>  (178) 
76

>  <inspiration_ids>  (178) 
[94, 76]

>  <energy_score>  (178) 
562.0877706646729

>  <distance_score>  (178) 
15.324406961315667

>  <path>  (178) 
/opt/xchem-fragalysis-2/maxwin/BulkDock/SCRATCH/511018/C4874-P76/C4874-P76.minimised.mol

>  <scratch_subdir>  (178) 
/opt/xchem-fragalysis-2/maxwin/BulkDock/SCRATCH/511018/C4874-P76

>  <fragmenstein_runtime>  (178) 
14.95009994506836

>  <fragmenstein_outcome>  (178) 
too moved

>  <fragmenstein_mode>  (178) 
expansion

>  <fragmenstein_error>  (178) 


$$$$
C4875-P94
     RDKit          3D

 40 43  0  0  0  0  0  0  0  0999 V2000
    2.6472   -2.1234   16.0962 C   0  0  0  0  0  0  0  0  0  0  0  0
    3.4762   -1.9686   15.0133 C   0  0  0  0  0  0  0  0  0  0  0  0
    4.2720   -3.4188   14.6396 S   0  0  0  0  0  0  0  0  0  0  0  0
    3.6940   -4.2178   16.0552 C   0  0  0  0  0  0  0  0  0  0  0  0
    4.2149   -5.5777   16.4672 C   0  0  0  0  0  0  0  0  0  0  0  0
    4.2636   -5.7923   17.9442 N   0  0  0  0  0  0  0  0  0  0  0  0
    5.3124   -6.7572   18.3010 C   0  0  0  0  0  0  0  0  0  0  0  0
    5.1492   -7.9872   19.7632 C   0  0  0  0  0  0  0  0  0  0  0  0
    4.7289   -8.0329   21.8721 C   0  0  0  0  0  0  0  0  0  0  0  0
    2.7839   -8.5200   22.3174 C   0  0  0  0  0  0  0  0  0  0  0  0
    1.5326   -9.5839   21.3015 C   0  0  0  0  0  0  0  0  0  0  0  0
    0.9048  -11.2947   22.2760 N   0  0  0  0  0  0  0  0  0  0  0  0
    2.1547  -12.0296   23.3198 C   0  0  0  0  0  0  0  0  0  0  0  0
    1.9102  -13.1539   24.0385 N   0  0  0  0  0  0  0  0  0  0  0  0
    0.4979  -14.0236   23.8070 C   0  0  0  0  0  0  0  0  0  0  0  0
   -0.8489  -14.1851   24.7516 C   0  0  0  0  0  0  0  0  0  0  0  0
   -1.8604  -14.9685   24.9675 C   0  0  0  0  0  0  0  0  0  0  0  0
   -1.7570  -15.2587   23.7486 C   0  0  0  0  0  0  0  0  0  0  0  0
   -0.6676  -14.5689   22.5197 C   0  0  0  0  0  0  0  0  0  0  0  0
   -0.1701  -12.8486   22.6691 C   0  0  0  0  0  0  0  0  0  0  0  0
    2.1593   -9.3281   19.4324 C   0  0  0  0  0  0  0  0  0  0  0  0
    3.8567   -8.9250   18.5539 C   0  0  0  0  0  0  0  0  0  0  0  0
    2.7234   -3.4365   16.6442 C   0  0  0  0  0  0  0  0  0  0  0  0
    1.9967   -1.3413   16.4680 H   0  0  0  0  0  0  0  0  0  0  0  0
    3.6046   -1.0902   14.3956 H   0  0  0  0  0  0  0  0  0  0  0  0
    3.5683   -6.3473   16.0271 H   0  0  0  0  0  0  0  0  0  0  0  0
    5.2102   -5.7278   16.0405 H   0  0  0  0  0  0  0  0  0  0  0  0
    3.3511   -6.1031   18.2684 H   0  0  0  0  0  0  0  0  0  0  0  0
    6.2943   -6.2684   18.3510 H   0  0  0  0  0  0  0  0  0  0  0  0
    5.3242   -7.4273   17.4371 H   0  0  0  0  0  0  0  0  0  0  0  0
    5.2194   -7.3493   22.6610 H   0  0  0  0  0  0  0  0  0  0  0  0
    2.4539   -8.2393   23.3134 H   0  0  0  0  0  0  0  0  0  0  0  0
    3.1098  -11.8519   22.8640 H   0  0  0  0  0  0  0  0  0  0  0  0
   -0.9307  -13.4500   25.5532 H   0  0  0  0  0  0  0  0  0  0  0  0
   -2.4262  -14.8877   25.8186 H   0  0  0  0  0  0  0  0  0  0  0  0
   -2.8386  -15.4321   23.4921 H   0  0  0  0  0  0  0  0  0  0  0  0
   -1.4118  -14.7600   21.6664 H   0  0  0  0  0  0  0  0  0  0  0  0
    1.8558   -9.8869   18.5162 H   0  0  0  0  0  0  0  0  0  0  0  0
    3.8781   -8.8622   17.4655 H   0  0  0  0  0  0  0  0  0  0  0  0
    2.1286   -3.7762   17.4773 H   0  0  0  0  0  0  0  0  0  0  0  0
  1  2  2  0
  2  3  1  0
  3  4  1  0
  4  5  1  0
  5  6  1  0
  6  7  1  0
  7  8  1  0
  8  9  2  0
  9 10  1  0
 10 11  2  0
 11 12  1  0
 12 13  1  0
 13 14  2  0
 14 15  1  0
 15 16  2  0
 16 17  1  0
 17 18  2  0
 18 19  1  0
 19 20  2  0
 11 21  1  0
 21 22  2  0
  4 23  2  0
 23  1  1  0
 22  8  1  0
 20 12  1  0
 20 15  1  0
  1 24  1  0
  2 25  1  0
  5 26  1  0
  5 27  1  0
  6 28  1  0
  7 29  1  0
  7 30  1  0
  9 31  1  0
 10 32  1  0
 13 33  1  0
 16 34  1  0
 17 35  1  0
 18 36  1  0
 19 37  1  0
 21 38  1  0
 22 39  1  0
 23 40  1  0
M  END
>  <Energy>  (179) 
1656.6408620864204

>  <compound_id>  (179) 
4875

>  <target_id>  (179) 
1

>  <reference_id>  (179) 
94

>  <inspiration_ids>  (179) 
[94, 76]

>  <energy_score>  (179) 
1555.2060984770467

>  <distance_score>  (179) 
15.644707467172923

>  <path>  (179) 
/opt/xchem-fragalysis-2/maxwin/BulkDock/SCRATCH/511018/C4875-P94/C4875-P94.minimised.mol

>  <scratch_subdir>  (179) 
/opt/xchem-fragalysis-2/maxwin/BulkDock/SCRATCH/511018/C4875-P94

>  <fragmenstein_runtime>  (179) 
30.67666721343994

>  <fragmenstein_outcome>  (179) 
too moved

>  <fragmenstein_mode>  (179) 
expansion

>  <fragmenstein_error>  (179) 


$$$$
C4875-P76
     RDKit          3D

 40 43  0  0  0  0  0  0  0  0999 V2000
    7.8225  -13.7569   19.6966 C   0  0  0  0  0  0  0  0  0  0  0  0
    7.6977  -12.6466   18.9159 C   0  0  0  0  0  0  0  0  0  0  0  0
    6.2148  -11.9029   19.2023 S   0  0  0  0  0  0  0  0  0  0  0  0
    5.6962  -12.9431   20.5312 C   0  0  0  0  0  0  0  0  0  0  0  0
    4.1132  -12.7282   21.3670 C   0  0  0  0  0  0  0  0  0  0  0  0
    3.2244  -12.2183   22.9520 N   0  0  0  0  0  0  0  0  0  0  0  0
    2.3332  -12.9993   24.4118 C   0  0  0  0  0  0  0  0  0  0  0  0
    1.4218  -13.0712   26.2125 C   0  0  0  0  0  0  0  0  0  0  0  0
    1.8877  -13.7781   27.4580 C   0  0  0  0  0  0  0  0  0  0  0  0
    1.0788  -14.3305   28.6191 C   0  0  0  0  0  0  0  0  0  0  0  0
   -0.2588  -14.0255   28.7799 C   0  0  0  0  0  0  0  0  0  0  0  0
   -1.2301  -14.7198   29.6434 N   0  0  0  0  0  0  0  0  0  0  0  0
   -2.1416  -14.0590   30.4546 C   0  0  0  0  0  0  0  0  0  0  0  0
   -3.0427  -14.8381   31.0094 N   0  0  0  0  0  0  0  0  0  0  0  0
   -2.7879  -16.0872   30.5199 C   0  0  0  0  0  0  0  0  0  0  0  0
   -3.5537  -17.2618   30.7029 C   0  0  0  0  0  0  0  0  0  0  0  0
   -3.1614  -18.4448   30.0817 C   0  0  0  0  0  0  0  0  0  0  0  0
   -1.9907  -18.4622   29.3329 C   0  0  0  0  0  0  0  0  0  0  0  0
   -1.1979  -17.3041   29.1608 C   0  0  0  0  0  0  0  0  0  0  0  0
   -1.6246  -16.0854   29.7267 C   0  0  0  0  0  0  0  0  0  0  0  0
   -0.5792  -12.9333   27.9807 C   0  0  0  0  0  0  0  0  0  0  0  0
    0.2689  -12.4733   26.8145 C   0  0  0  0  0  0  0  0  0  0  0  0
    6.6725  -13.9536   20.5388 C   0  0  0  0  0  0  0  0  0  0  0  0
    8.6666  -14.4340   19.6494 H   0  0  0  0  0  0  0  0  0  0  0  0
    8.3809  -12.2721   18.1653 H   0  0  0  0  0  0  0  0  0  0  0  0
    4.4056  -11.7073   21.3123 H   0  0  0  0  0  0  0  0  0  0  0  0
    3.4398  -13.3150   20.8049 H   0  0  0  0  0  0  0  0  0  0  0  0
    2.3700  -12.2565   22.4236 H   0  0  0  0  0  0  0  0  0  0  0  0
    3.2938  -13.4331   24.7076 H   0  0  0  0  0  0  0  0  0  0  0  0
    1.9813  -11.9856   24.4350 H   0  0  0  0  0  0  0  0  0  0  0  0
    2.9528  -14.0518   27.5428 H   0  0  0  0  0  0  0  0  0  0  0  0
    1.5818  -15.0242   29.2914 H   0  0  0  0  0  0  0  0  0  0  0  0
   -2.0875  -12.9884   30.5953 H   0  0  0  0  0  0  0  0  0  0  0  0
   -4.4589  -17.2256   31.3017 H   0  0  0  0  0  0  0  0  0  0  0  0
   -3.7641  -19.3425   30.1965 H   0  0  0  0  0  0  0  0  0  0  0  0
   -1.6768  -19.3946   28.8683 H   0  0  0  0  0  0  0  0  0  0  0  0
   -0.2825  -17.3763   28.5871 H   0  0  0  0  0  0  0  0  0  0  0  0
   -1.5327  -12.4175   28.1072 H   0  0  0  0  0  0  0  0  0  0  0  0
   -0.1655  -11.5780   26.4753 H   0  0  0  0  0  0  0  0  0  0  0  0
    6.6322  -14.8356   21.1594 H   0  0  0  0  0  0  0  0  0  0  0  0
  1  2  2  0
  2  3  1  0
  3  4  1  0
  4  5  1  0
  5  6  1  0
  6  7  1  0
  7  8  1  0
  8  9  2  0
  9 10  1  0
 10 11  2  0
 11 12  1  0
 12 13  1  0
 13 14  2  0
 14 15  1  0
 15 16  2  0
 16 17  1  0
 17 18  2  0
 18 19  1  0
 19 20  2  0
 11 21  1  0
 21 22  2  0
  4 23  2  0
 23  1  1  0
 22  8  1  0
 20 12  1  0
 20 15  1  0
  1 24  1  0
  2 25  1  0
  5 26  1  0
  5 27  1  0
  6 28  1  0
  7 29  1  0
  7 30  1  0
  9 31  1  0
 10 32  1  0
 13 33  1  0
 16 34  1  0
 17 35  1  0
 18 36  1  0
 19 37  1  0
 21 38  1  0
 22 39  1  0
 23 40  1  0
M  END
>  <Energy>  (180) 
488.93620167432891

>  <compound_id>  (180) 
4875

>  <target_id>  (180) 
1

>  <reference_id>  (180) 
76

>  <inspiration_ids>  (180) 
[94, 76]

>  <energy_score>  (180) 
387.50143806495964

>  <distance_score>  (180) 
16.128304765890444

>  <path>  (180) 
/opt/xchem-fragalysis-2/maxwin/BulkDock/SCRATCH/511018/C4875-P76/C4875-P76.minimised.mol

>  <scratch_subdir>  (180) 
/opt/xchem-fragalysis-2/maxwin/BulkDock/SCRATCH/511018/C4875-P76

>  <fragmenstein_runtime>  (180) 
13.731438398361206

>  <fragmenstein_outcome>  (180) 
too moved

>  <fragmenstein_mode>  (180) 
expansion

>  <fragmenstein_error>  (180) 


$$$$
C4883-P94
     RDKit          3D

 41 43  0  0  0  0  0  0  0  0999 V2000
   -0.8849  -14.5791   23.4190 O   0  0  0  0  0  0  0  0  0  0  0  0
   -0.4581  -14.2954   24.5223 C   0  0  0  0  0  0  0  0  0  0  0  0
   -1.8592  -14.7049   25.9755 C   0  0  0  0  0  0  0  0  0  0  0  0
   -2.0708  -15.8362   27.6186 C   0  0  0  0  0  0  0  0  0  0  0  0
   -2.6729  -17.2963   27.7323 C   0  0  0  0  0  0  0  0  0  0  0  0
   -2.5229  -18.1633   28.9105 N   0  0  0  0  0  0  0  0  0  0  0  0
   -1.6622  -19.2375   28.9409 C   0  0  0  0  0  0  0  0  0  0  0  0
   -1.9135  -20.0724   29.9219 N   0  0  0  0  0  0  0  0  0  0  0  0
   -3.0054  -19.5483   30.5578 C   0  0  0  0  0  0  0  0  0  0  0  0
   -3.6778  -20.0431   31.6832 C   0  0  0  0  0  0  0  0  0  0  0  0
   -4.7745  -19.3336   32.1656 C   0  0  0  0  0  0  0  0  0  0  0  0
   -5.2096  -18.1749   31.5212 C   0  0  0  0  0  0  0  0  0  0  0  0
   -4.5644  -17.6810   30.3847 C   0  0  0  0  0  0  0  0  0  0  0  0
   -3.4317  -18.3685   29.9384 C   0  0  0  0  0  0  0  0  0  0  0  0
    1.2531  -13.6201   24.8659 N   0  0  0  0  0  0  0  0  0  0  0  0
    2.7648  -13.3303   23.6841 C   0  0  0  0  0  0  0  0  0  0  0  0
    3.5842  -12.5899   22.0121 C   0  0  0  0  0  0  0  0  0  0  0  0
    5.0929  -12.5534   20.7705 C   0  0  0  0  0  0  0  0  0  0  0  0
    6.5153  -11.9594   20.9466 C   0  0  0  0  0  0  0  0  0  0  0  0
    7.3653  -12.0256   19.8643 C   0  0  0  0  0  0  0  0  0  0  0  0
    6.5905  -12.7197   18.5395 S   0  0  0  0  0  0  0  0  0  0  0  0
    5.1380  -12.9534   19.4295 C   0  0  0  0  0  0  0  0  0  0  0  0
   -1.2558  -14.4946   26.8597 H   0  0  0  0  0  0  0  0  0  0  0  0
   -2.5414  -13.8835   25.9149 H   0  0  0  0  0  0  0  0  0  0  0  0
   -1.1441  -15.9085   28.1981 H   0  0  0  0  0  0  0  0  0  0  0  0
   -2.5059  -15.2684   28.4244 H   0  0  0  0  0  0  0  0  0  0  0  0
   -3.7476  -17.2173   27.6898 H   0  0  0  0  0  0  0  0  0  0  0  0
   -2.2314  -17.8701   26.9144 H   0  0  0  0  0  0  0  0  0  0  0  0
   -0.8832  -19.3673   28.2016 H   0  0  0  0  0  0  0  0  0  0  0  0
   -3.3466  -20.9566   32.1608 H   0  0  0  0  0  0  0  0  0  0  0  0
   -5.3242  -19.7065   33.0263 H   0  0  0  0  0  0  0  0  0  0  0  0
   -6.0888  -17.6615   31.9034 H   0  0  0  0  0  0  0  0  0  0  0  0
   -4.9258  -16.7871   29.9015 H   0  0  0  0  0  0  0  0  0  0  0  0
    1.3338  -13.3875   25.8470 H   0  0  0  0  0  0  0  0  0  0  0  0
    2.5400  -12.2956   23.9033 H   0  0  0  0  0  0  0  0  0  0  0  0
    3.5675  -13.7297   24.2939 H   0  0  0  0  0  0  0  0  0  0  0  0
    3.7747  -11.5688   22.3031 H   0  0  0  0  0  0  0  0  0  0  0  0
    3.2155  -13.2172   21.2257 H   0  0  0  0  0  0  0  0  0  0  0  0
    6.8739  -11.4807   21.8536 H   0  0  0  0  0  0  0  0  0  0  0  0
    8.3847  -11.6725   19.7947 H   0  0  0  0  0  0  0  0  0  0  0  0
    4.3460  -13.3864   18.8563 H   0  0  0  0  0  0  0  0  0  0  0  0
  1  2  2  0
  2  3  1  0
  3  4  1  0
  4  5  1  0
  5  6  1  0
  6  7  1  0
  7  8  2  0
  8  9  1  0
  9 10  2  0
 10 11  1  0
 11 12  2  0
 12 13  1  0
 13 14  2  0
  2 15  1  0
 15 16  1  0
 16 17  1  0
 17 18  1  0
 18 19  1  0
 19 20  2  0
 20 21  1  0
 21 22  1  0
 14  6  1  0
 22 18  2  0
 14  9  1  0
  3 23  1  0
  3 24  1  0
  4 25  1  0
  4 26  1  0
  5 27  1  0
  5 28  1  0
  7 29  1  0
 10 30  1  0
 11 31  1  0
 12 32  1  0
 13 33  1  0
 15 34  1  0
 16 35  1  0
 16 36  1  0
 17 37  1  0
 17 38  1  0
 19 39  1  0
 20 40  1  0
 22 41  1  0
M  END
>  <Energy>  (181) 
547.44995454950958

>  <compound_id>  (181) 
4883

>  <target_id>  (181) 
1

>  <reference_id>  (181) 
94

>  <inspiration_ids>  (181) 
[94, 76]

>  <energy_score>  (181) 
509.8933084375916

>  <distance_score>  (181) 
12.091113710162777

>  <path>  (181) 
/opt/xchem-fragalysis-2/maxwin/BulkDock/SCRATCH/511018/C4883-P94/C4883-P94.minimised.mol

>  <scratch_subdir>  (181) 
/opt/xchem-fragalysis-2/maxwin/BulkDock/SCRATCH/511018/C4883-P94

>  <fragmenstein_runtime>  (181) 
25.945468425750732

>  <fragmenstein_outcome>  (181) 
too moved

>  <fragmenstein_mode>  (181) 
expansion

>  <fragmenstein_error>  (181) 


$$$$
C4883-P76
     RDKit          3D

 41 43  0  0  0  0  0  0  0  0999 V2000
    2.0099  -13.7983   27.2033 O   0  0  0  0  0  0  0  0  0  0  0  0
    1.3712  -13.1135   26.4032 C   0  0  0  0  0  0  0  0  0  0  0  0
   -0.1280  -12.5478   27.1618 C   0  0  0  0  0  0  0  0  0  0  0  0
   -0.7775  -13.5237   28.4689 C   0  0  0  0  0  0  0  0  0  0  0  0
   -1.7377  -12.9745   29.6773 C   0  0  0  0  0  0  0  0  0  0  0  0
   -2.2622  -13.9349   30.7012 N   0  0  0  0  0  0  0  0  0  0  0  0
   -1.4357  -14.6703   31.5261 C   0  0  0  0  0  0  0  0  0  0  0  0
   -2.0852  -15.5645   32.2407 N   0  0  0  0  0  0  0  0  0  0  0  0
   -3.4045  -15.3929   31.9274 C   0  0  0  0  0  0  0  0  0  0  0  0
   -4.5178  -16.1645   32.3194 C   0  0  0  0  0  0  0  0  0  0  0  0
   -5.7996  -15.7247   31.9889 C   0  0  0  0  0  0  0  0  0  0  0  0
   -5.9604  -14.4958   31.3516 C   0  0  0  0  0  0  0  0  0  0  0  0
   -4.8516  -13.7150   30.9497 C   0  0  0  0  0  0  0  0  0  0  0  0
   -3.5604  -14.2430   31.1396 C   0  0  0  0  0  0  0  0  0  0  0  0
    1.7855  -12.6547   24.7327 N   0  0  0  0  0  0  0  0  0  0  0  0
    3.0696  -13.0980   23.7497 C   0  0  0  0  0  0  0  0  0  0  0  0
    3.7313  -12.4604   21.9733 C   0  0  0  0  0  0  0  0  0  0  0  0
    5.2878  -12.4187   20.8579 C   0  0  0  0  0  0  0  0  0  0  0  0
    5.3698  -12.8558   19.4684 C   0  0  0  0  0  0  0  0  0  0  0  0
    6.5506  -12.5764   18.8056 C   0  0  0  0  0  0  0  0  0  0  0  0
    7.6679  -11.7850   19.8014 S   0  0  0  0  0  0  0  0  0  0  0  0
    6.5640  -11.8339   21.1105 C   0  0  0  0  0  0  0  0  0  0  0  0
   -0.9680  -12.4909   26.4819 H   0  0  0  0  0  0  0  0  0  0  0  0
    0.1035  -11.5706   27.5947 H   0  0  0  0  0  0  0  0  0  0  0  0
    0.0870  -14.0101   28.9345 H   0  0  0  0  0  0  0  0  0  0  0  0
   -1.3617  -14.2988   27.9711 H   0  0  0  0  0  0  0  0  0  0  0  0
   -2.5874  -12.4151   29.2808 H   0  0  0  0  0  0  0  0  0  0  0  0
   -1.1426  -12.2577   30.2577 H   0  0  0  0  0  0  0  0  0  0  0  0
   -0.3605  -14.5465   31.5182 H   0  0  0  0  0  0  0  0  0  0  0  0
   -4.3692  -17.0790   32.8838 H   0  0  0  0  0  0  0  0  0  0  0  0
   -6.6628  -16.3189   32.2775 H   0  0  0  0  0  0  0  0  0  0  0  0
   -6.9644  -14.1318   31.1428 H   0  0  0  0  0  0  0  0  0  0  0  0
   -5.0062  -12.7806   30.4191 H   0  0  0  0  0  0  0  0  0  0  0  0
    1.1097  -12.0306   24.3780 H   0  0  0  0  0  0  0  0  0  0  0  0
    2.9107  -12.0546   23.6777 H   0  0  0  0  0  0  0  0  0  0  0  0
    3.7317  -13.5511   24.4644 H   0  0  0  0  0  0  0  0  0  0  0  0
    3.2811  -13.1074   21.2546 H   0  0  0  0  0  0  0  0  0  0  0  0
    3.8638  -11.4118   22.2210 H   0  0  0  0  0  0  0  0  0  0  0  0
    4.5548  -13.3202   18.9423 H   0  0  0  0  0  0  0  0  0  0  0  0
    6.7857  -12.7984   17.7735 H   0  0  0  0  0  0  0  0  0  0  0  0
    6.9197  -11.3595   22.0153 H   0  0  0  0  0  0  0  0  0  0  0  0
  1  2  2  0
  2  3  1  0
  3  4  1  0
  4  5  1  0
  5  6  1  0
  6  7  1  0
  7  8  2  0
  8  9  1  0
  9 10  2  0
 10 11  1  0
 11 12  2  0
 12 13  1  0
 13 14  2  0
  2 15  1  0
 15 16  1  0
 16 17  1  0
 17 18  1  0
 18 19  1  0
 19 20  2  0
 20 21  1  0
 21 22  1  0
 14  6  1  0
 22 18  2  0
 14  9  1  0
  3 23  1  0
  3 24  1  0
  4 25  1  0
  4 26  1  0
  5 27  1  0
  5 28  1  0
  7 29  1  0
 10 30  1  0
 11 31  1  0
 12 32  1  0
 13 33  1  0
 15 34  1  0
 16 35  1  0
 16 36  1  0
 17 37  1  0
 17 38  1  0
 19 39  1  0
 20 40  1  0
 22 41  1  0
M  END
>  <Energy>  (182) 
321.20394344297904

>  <compound_id>  (182) 
4883

>  <target_id>  (182) 
1

>  <reference_id>  (182) 
76

>  <inspiration_ids>  (182) 
[94, 76]

>  <energy_score>  (182) 
283.6472973310707

>  <distance_score>  (182) 
13.201525062782009

>  <path>  (182) 
/opt/xchem-fragalysis-2/maxwin/BulkDock/SCRATCH/511018/C4883-P76/C4883-P76.minimised.mol

>  <scratch_subdir>  (182) 
/opt/xchem-fragalysis-2/maxwin/BulkDock/SCRATCH/511018/C4883-P76

>  <fragmenstein_runtime>  (182) 
18.649280309677124

>  <fragmenstein_outcome>  (182) 
too moved

>  <fragmenstein_mode>  (182) 
expansion

>  <fragmenstein_error>  (182) 


$$$$
C4884-P94
     RDKit          3D

 39 41  0  0  0  0  0  0  0  0999 V2000
    1.6833   -9.6708   15.8367 O   0  0  0  0  0  0  0  0  0  0  0  0
    1.2827   -8.9010   16.6779 C   0  0  0  0  0  0  0  0  0  0  0  0
    2.3951   -7.6814   17.1542 C   0  0  0  0  0  0  0  0  0  0  0  0
    3.9362   -7.3479   17.4426 N   0  0  0  0  0  0  0  0  0  0  0  0
    4.5872   -6.0978   17.9547 C   0  0  0  0  0  0  0  0  0  0  0  0
    4.1017   -5.0370   18.1860 O   0  0  0  0  0  0  0  0  0  0  0  0
    6.3008   -6.0937   18.4498 C   0  0  0  0  0  0  0  0  0  0  0  0
    7.2604   -6.8850   19.5182 C   0  0  0  0  0  0  0  0  0  0  0  0
    8.4096   -6.4967   20.2072 C   0  0  0  0  0  0  0  0  0  0  0  0
    8.3189   -4.9357   20.5579 S   0  0  0  0  0  0  0  0  0  0  0  0
    6.5958   -5.0008   19.3074 C   0  0  0  0  0  0  0  0  0  0  0  0
   -0.0946   -8.7819   17.3383 N   0  0  0  0  0  0  0  0  0  0  0  0
   -1.4099   -9.7030   17.2045 C   0  0  0  0  0  0  0  0  0  0  0  0
   -2.3827   -9.9757   18.5005 C   0  0  0  0  0  0  0  0  0  0  0  0
   -3.2929  -11.3129   18.7611 C   0  0  0  0  0  0  0  0  0  0  0  0
   -4.4908  -11.3268   19.3645 N   0  0  0  0  0  0  0  0  0  0  0  0
   -4.8844  -12.6544   19.5534 C   0  0  0  0  0  0  0  0  0  0  0  0
   -6.0353  -13.2166   20.1655 C   0  0  0  0  0  0  0  0  0  0  0  0
   -6.1430  -14.6121   20.3199 C   0  0  0  0  0  0  0  0  0  0  0  0
   -5.1229  -15.4433   19.8604 C   0  0  0  0  0  0  0  0  0  0  0  0
   -3.9804  -14.9060   19.2322 C   0  0  0  0  0  0  0  0  0  0  0  0
   -3.8883  -13.5030   19.0960 C   0  0  0  0  0  0  0  0  0  0  0  0
   -2.9269  -12.6422   18.5634 N   0  0  0  0  0  0  0  0  0  0  0  0
    2.1660   -6.9009   16.4129 H   0  0  0  0  0  0  0  0  0  0  0  0
    1.9381   -7.3037   18.0792 H   0  0  0  0  0  0  0  0  0  0  0  0
    4.6201   -8.0986   17.4355 H   0  0  0  0  0  0  0  0  0  0  0  0
    6.7823   -7.6276   20.0765 H   0  0  0  0  0  0  0  0  0  0  0  0
    9.2777   -7.0431   20.4896 H   0  0  0  0  0  0  0  0  0  0  0  0
    5.8883   -4.2452   19.6432 H   0  0  0  0  0  0  0  0  0  0  0  0
   -0.1064   -7.9694   17.9438 H   0  0  0  0  0  0  0  0  0  0  0  0
   -1.1414  -10.6451   16.7301 H   0  0  0  0  0  0  0  0  0  0  0  0
   -2.0143   -9.1609   16.4671 H   0  0  0  0  0  0  0  0  0  0  0  0
   -1.8370   -9.8158   19.4340 H   0  0  0  0  0  0  0  0  0  0  0  0
   -3.1212   -9.1607   18.4764 H   0  0  0  0  0  0  0  0  0  0  0  0
   -6.8135  -12.5553   20.5326 H   0  0  0  0  0  0  0  0  0  0  0  0
   -7.0217  -15.0355   20.7984 H   0  0  0  0  0  0  0  0  0  0  0  0
   -5.2049  -16.5217   19.9825 H   0  0  0  0  0  0  0  0  0  0  0  0
   -3.1907  -15.5609   18.8747 H   0  0  0  0  0  0  0  0  0  0  0  0
   -2.0815  -12.9372   18.1015 H   0  0  0  0  0  0  0  0  0  0  0  0
  1  2  2  0
  2  3  1  0
  3  4  1  0
  4  5  1  0
  5  6  2  0
  5  7  1  0
  7  8  1  0
  8  9  2  0
  9 10  1  0
 10 11  1  0
  2 12  1  0
 12 13  1  0
 13 14  1  0
 14 15  1  0
 15 16  2  0
 16 17  1  0
 17 18  2  0
 18 19  1  0
 19 20  2  0
 20 21  1  0
 21 22  2  0
 22 23  1  0
 11  7  2  0
 23 15  1  0
 22 17  1  0
  3 24  1  0
  3 25  1  0
  4 26  1  0
  8 27  1  0
  9 28  1  0
 11 29  1  0
 12 30  1  0
 13 31  1  0
 13 32  1  0
 14 33  1  0
 14 34  1  0
 18 35  1  0
 19 36  1  0
 20 37  1  0
 21 38  1  0
 23 39  1  0
M  END
>  <Energy>  (183) 
254.08581470503438

>  <compound_id>  (183) 
4884

>  <target_id>  (183) 
1

>  <reference_id>  (183) 
94

>  <inspiration_ids>  (183) 
[94, 76]

>  <energy_score>  (183) 
214.0746655466063

>  <distance_score>  (183) 
15.383497594472358

>  <path>  (183) 
/opt/xchem-fragalysis-2/maxwin/BulkDock/SCRATCH/511018/C4884-P94/C4884-P94.minimised.mol

>  <scratch_subdir>  (183) 
/opt/xchem-fragalysis-2/maxwin/BulkDock/SCRATCH/511018/C4884-P94

>  <fragmenstein_runtime>  (183) 
26.763723611831665

>  <fragmenstein_outcome>  (183) 
too moved

>  <fragmenstein_mode>  (183) 
expansion

>  <fragmenstein_error>  (183) 


$$$$
C4884-P76
     RDKit          3D

 39 41  0  0  0  0  0  0  0  0999 V2000
    4.5703  -20.3471   27.6723 O   0  0  0  0  0  0  0  0  0  0  0  0
    4.2660  -20.7855   26.5979 C   0  0  0  0  0  0  0  0  0  0  0  0
    5.4400  -21.1328   25.5762 C   0  0  0  0  0  0  0  0  0  0  0  0
    6.4842  -20.1275   25.2900 N   0  0  0  0  0  0  0  0  0  0  0  0
    7.7513  -19.8755   25.9244 C   0  0  0  0  0  0  0  0  0  0  0  0
    8.2473  -20.3642   26.8946 O   0  0  0  0  0  0  0  0  0  0  0  0
    8.5895  -18.8573   25.1937 C   0  0  0  0  0  0  0  0  0  0  0  0
    9.0091  -17.5620   25.7010 C   0  0  0  0  0  0  0  0  0  0  0  0
    9.9448  -16.9231   24.9114 C   0  0  0  0  0  0  0  0  0  0  0  0
   10.4063  -17.8972   23.5852 S   0  0  0  0  0  0  0  0  0  0  0  0
    9.2258  -19.0871   23.9812 C   0  0  0  0  0  0  0  0  0  0  0  0
    2.9567  -21.0733   26.0264 N   0  0  0  0  0  0  0  0  0  0  0  0
    1.5936  -20.8255   26.5492 C   0  0  0  0  0  0  0  0  0  0  0  0
    0.9282  -22.0014   27.3107 C   0  0  0  0  0  0  0  0  0  0  0  0
   -0.5989  -21.9530   27.3323 C   0  0  0  0  0  0  0  0  0  0  0  0
   -1.3922  -21.0536   27.8911 N   0  0  0  0  0  0  0  0  0  0  0  0
   -2.6645  -21.3224   27.4213 C   0  0  0  0  0  0  0  0  0  0  0  0
   -3.8522  -20.5846   27.5305 C   0  0  0  0  0  0  0  0  0  0  0  0
   -4.9750  -21.0044   26.7996 C   0  0  0  0  0  0  0  0  0  0  0  0
   -4.9519  -22.1798   26.0542 C   0  0  0  0  0  0  0  0  0  0  0  0
   -3.7879  -22.9426   25.9650 C   0  0  0  0  0  0  0  0  0  0  0  0
   -2.6669  -22.4741   26.6506 C   0  0  0  0  0  0  0  0  0  0  0  0
   -1.3666  -22.9095   26.6965 N   0  0  0  0  0  0  0  0  0  0  0  0
    5.0232  -21.4144   24.6049 H   0  0  0  0  0  0  0  0  0  0  0  0
    5.9472  -22.0120   25.9898 H   0  0  0  0  0  0  0  0  0  0  0  0
    6.4285  -19.5828   24.4313 H   0  0  0  0  0  0  0  0  0  0  0  0
    8.6651  -17.1537   26.6449 H   0  0  0  0  0  0  0  0  0  0  0  0
   10.4186  -15.9675   25.0904 H   0  0  0  0  0  0  0  0  0  0  0  0
    9.1472  -19.9686   23.3597 H   0  0  0  0  0  0  0  0  0  0  0  0
    3.0720  -21.3580   25.0601 H   0  0  0  0  0  0  0  0  0  0  0  0
    1.6485  -19.9506   27.2065 H   0  0  0  0  0  0  0  0  0  0  0  0
    0.9895  -20.5513   25.6770 H   0  0  0  0  0  0  0  0  0  0  0  0
    1.2422  -22.9467   26.8499 H   0  0  0  0  0  0  0  0  0  0  0  0
    1.2965  -22.0211   28.3430 H   0  0  0  0  0  0  0  0  0  0  0  0
   -3.8679  -19.6682   28.1107 H   0  0  0  0  0  0  0  0  0  0  0  0
   -5.8646  -20.3826   26.7999 H   0  0  0  0  0  0  0  0  0  0  0  0
   -5.8295  -22.5024   25.5009 H   0  0  0  0  0  0  0  0  0  0  0  0
   -3.7459  -23.8260   25.3374 H   0  0  0  0  0  0  0  0  0  0  0  0
   -1.0028  -23.7056   26.1951 H   0  0  0  0  0  0  0  0  0  0  0  0
  1  2  2  0
  2  3  1  0
  3  4  1  0
  4  5  1  0
  5  6  2  0
  5  7  1  0
  7  8  1  0
  8  9  2  0
  9 10  1  0
 10 11  1  0
  2 12  1  0
 12 13  1  0
 13 14  1  0
 14 15  1  0
 15 16  2  0
 16 17  1  0
 17 18  2  0
 18 19  1  0
 19 20  2  0
 20 21  1  0
 21 22  2  0
 22 23  1  0
 11  7  2  0
 23 15  1  0
 22 17  1  0
  3 24  1  0
  3 25  1  0
  4 26  1  0
  8 27  1  0
  9 28  1  0
 11 29  1  0
 12 30  1  0
 13 31  1  0
 13 32  1  0
 14 33  1  0
 14 34  1  0
 18 35  1  0
 19 36  1  0
 20 37  1  0
 21 38  1  0
 23 39  1  0
M  END
>  <Energy>  (184) 
46.138200326709828

>  <compound_id>  (184) 
4884

>  <target_id>  (184) 
1

>  <reference_id>  (184) 
76

>  <inspiration_ids>  (184) 
[94, 76]

>  <energy_score>  (184) 
6.127051168279024

>  <distance_score>  (184) 
18.80906759603288

>  <path>  (184) 
/opt/xchem-fragalysis-2/maxwin/BulkDock/SCRATCH/511018/C4884-P76/C4884-P76.minimised.mol

>  <scratch_subdir>  (184) 
/opt/xchem-fragalysis-2/maxwin/BulkDock/SCRATCH/511018/C4884-P76

>  <fragmenstein_runtime>  (184) 
20.832592964172363

>  <fragmenstein_outcome>  (184) 
too moved

>  <fragmenstein_mode>  (184) 
expansion

>  <fragmenstein_error>  (184) 


$$$$
C4888-P94
     RDKit          3D

 32 34  0  0  0  0  0  0  0  0999 V2000
    4.8697  -19.7329   24.3690 C   0  0  0  0  0  0  0  0  0  0  0  0
    3.9215  -18.6246   23.8592 C   0  0  0  0  0  0  0  0  0  0  0  0
    2.6247  -18.3839   24.8157 N   0  0  0  0  0  0  0  0  0  0  0  0
    0.9276  -18.9765   24.6785 C   0  0  0  0  0  0  0  0  0  0  0  0
    0.5453  -19.6408   23.7549 O   0  0  0  0  0  0  0  0  0  0  0  0
   -0.5707  -18.5805   25.8854 C   0  0  0  0  0  0  0  0  0  0  0  0
   -1.6462  -18.5963   24.9404 N   0  0  0  0  0  0  0  0  0  0  0  0
   -1.5723  -19.8558   23.4615 C   0  0  0  0  0  0  0  0  0  0  0  0
   -1.1043  -20.4914   22.2892 C   0  0  0  0  0  0  0  0  0  0  0  0
   -1.8149  -21.6523   21.8677 C   0  0  0  0  0  0  0  0  0  0  0  0
   -2.9706  -22.0987   22.5332 C   0  0  0  0  0  0  0  0  0  0  0  0
   -3.9457  -23.5650   21.8446 Br  0  0  0  0  0  0  0  0  0  0  0  0
   -3.4191  -21.4654   23.6907 C   0  0  0  0  0  0  0  0  0  0  0  0
   -2.4910  -20.4774   24.1864 C   0  0  0  0  0  0  0  0  0  0  0  0
   -2.1819  -19.4422   25.7710 N   0  0  0  0  0  0  0  0  0  0  0  0
    4.7568  -17.3806   23.1452 C   0  0  0  0  0  0  0  0  0  0  0  0
    5.4347  -17.5782   21.8576 C   0  0  0  0  0  0  0  0  0  0  0  0
    6.0995  -16.4732   21.3589 C   0  0  0  0  0  0  0  0  0  0  0  0
    5.9653  -15.1388   22.4010 S   0  0  0  0  0  0  0  0  0  0  0  0
    5.0034  -16.0549   23.5025 C   0  0  0  0  0  0  0  0  0  0  0  0
    4.6335  -20.0619   25.3828 H   0  0  0  0  0  0  0  0  0  0  0  0
    5.9197  -19.4287   24.3268 H   0  0  0  0  0  0  0  0  0  0  0  0
    4.7979  -20.6188   23.7262 H   0  0  0  0  0  0  0  0  0  0  0  0
    3.5215  -19.1262   22.9713 H   0  0  0  0  0  0  0  0  0  0  0  0
    2.7399  -17.9209   25.7081 H   0  0  0  0  0  0  0  0  0  0  0  0
   -0.2605  -20.1130   21.7218 H   0  0  0  0  0  0  0  0  0  0  0  0
   -1.4720  -22.1588   20.9684 H   0  0  0  0  0  0  0  0  0  0  0  0
   -4.3151  -21.7619   24.2164 H   0  0  0  0  0  0  0  0  0  0  0  0
   -2.8475  -18.7297   25.8601 H   0  0  0  0  0  0  0  0  0  0  0  0
    5.4120  -18.5237   21.3267 H   0  0  0  0  0  0  0  0  0  0  0  0
    6.6550  -16.3986   20.4341 H   0  0  0  0  0  0  0  0  0  0  0  0
    4.6788  -15.5037   24.3675 H   0  0  0  0  0  0  0  0  0  0  0  0
  1  2  1  0
  2  3  1  0
  3  4  1  0
  4  5  2  0
  4  6  1  0
  6  7  2  0
  7  8  1  0
  8  9  2  0
  9 10  1  0
 10 11  2  0
 11 12  1  0
 11 13  1  0
 13 14  2  0
 14 15  1  0
  2 16  1  0
 16 17  1  0
 17 18  2  0
 18 19  1  0
 19 20  1  0
 15  6  1  0
 20 16  2  0
 14  8  1  0
  1 21  1  0
  1 22  1  0
  1 23  1  0
  2 24  1  0
  3 25  1  0
  9 26  1  0
 10 27  1  0
 13 28  1  0
 15 29  1  0
 17 30  1  0
 18 31  1  0
 20 32  1  0
M  END
>  <Energy>  (185) 
600.62412356486368

>  <compound_id>  (185) 
4888

>  <target_id>  (185) 
1

>  <reference_id>  (185) 
94

>  <inspiration_ids>  (185) 
[94, 76]

>  <energy_score>  (185) 
563.3905592356854

>  <distance_score>  (185) 
15.182386117824212

>  <path>  (185) 
/opt/xchem-fragalysis-2/maxwin/BulkDock/SCRATCH/511018/C4888-P94/C4888-P94.minimised.mol

>  <scratch_subdir>  (185) 
/opt/xchem-fragalysis-2/maxwin/BulkDock/SCRATCH/511018/C4888-P94

>  <fragmenstein_runtime>  (185) 
18.70769453048706

>  <fragmenstein_outcome>  (185) 
too moved

>  <fragmenstein_mode>  (185) 
expansion

>  <fragmenstein_error>  (185) 


$$$$
C4888-P76
     RDKit          3D

 32 34  0  0  0  0  0  0  0  0999 V2000
   -6.2323   -7.7975   21.7804 C   0  0  0  0  0  0  0  0  0  0  0  0
   -5.5102   -9.1453   21.6940 C   0  0  0  0  0  0  0  0  0  0  0  0
   -6.1267  -10.0755   22.6742 N   0  0  0  0  0  0  0  0  0  0  0  0
   -7.1836  -11.0660   22.5155 C   0  0  0  0  0  0  0  0  0  0  0  0
   -7.7673  -11.4347   21.5335 O   0  0  0  0  0  0  0  0  0  0  0  0
   -7.6255  -11.7591   23.7856 C   0  0  0  0  0  0  0  0  0  0  0  0
   -7.2989  -11.4815   25.0361 N   0  0  0  0  0  0  0  0  0  0  0  0
   -7.9233  -12.4288   25.8403 C   0  0  0  0  0  0  0  0  0  0  0  0
   -7.8887  -12.5898   27.2352 C   0  0  0  0  0  0  0  0  0  0  0  0
   -8.5378  -13.6838   27.8144 C   0  0  0  0  0  0  0  0  0  0  0  0
   -9.1988  -14.6074   27.0090 C   0  0  0  0  0  0  0  0  0  0  0  0
   -9.8223  -16.1672   27.8348 Br  0  0  0  0  0  0  0  0  0  0  0  0
   -9.3076  -14.4468   25.6203 C   0  0  0  0  0  0  0  0  0  0  0  0
   -8.6516  -13.3305   25.0771 C   0  0  0  0  0  0  0  0  0  0  0  0
   -8.5292  -12.8258   23.8033 N   0  0  0  0  0  0  0  0  0  0  0  0
   -3.9420   -8.9490   21.6675 C   0  0  0  0  0  0  0  0  0  0  0  0
   -3.1632   -7.9856   22.4254 C   0  0  0  0  0  0  0  0  0  0  0  0
   -1.8371   -7.8926   22.0373 C   0  0  0  0  0  0  0  0  0  0  0  0
   -1.4645   -8.9803   20.7797 S   0  0  0  0  0  0  0  0  0  0  0  0
   -3.0876   -9.5472   20.7393 C   0  0  0  0  0  0  0  0  0  0  0  0
   -6.0895   -7.3337   22.7629 H   0  0  0  0  0  0  0  0  0  0  0  0
   -7.3108   -7.9240   21.6335 H   0  0  0  0  0  0  0  0  0  0  0  0
   -5.8666   -7.1005   21.0187 H   0  0  0  0  0  0  0  0  0  0  0  0
   -5.7681   -9.5700   20.7137 H   0  0  0  0  0  0  0  0  0  0  0  0
   -5.8123  -10.0808   23.6334 H   0  0  0  0  0  0  0  0  0  0  0  0
   -7.3244  -11.8869   27.8427 H   0  0  0  0  0  0  0  0  0  0  0  0
   -8.4619  -13.8265   28.8899 H   0  0  0  0  0  0  0  0  0  0  0  0
   -9.8288  -15.1616   24.9955 H   0  0  0  0  0  0  0  0  0  0  0  0
   -8.9905  -13.1691   22.9743 H   0  0  0  0  0  0  0  0  0  0  0  0
   -3.5846   -7.3492   23.1951 H   0  0  0  0  0  0  0  0  0  0  0  0
   -1.0726   -7.2385   22.4344 H   0  0  0  0  0  0  0  0  0  0  0  0
   -3.3571  -10.2915   20.0016 H   0  0  0  0  0  0  0  0  0  0  0  0
  1  2  1  0
  2  3  1  0
  3  4  1  0
  4  5  2  0
  4  6  1  0
  6  7  2  0
  7  8  1  0
  8  9  2  0
  9 10  1  0
 10 11  2  0
 11 12  1  0
 11 13  1  0
 13 14  2  0
 14 15  1  0
  2 16  1  0
 16 17  1  0
 17 18  2  0
 18 19  1  0
 19 20  1  0
 15  6  1  0
 20 16  2  0
 14  8  1  0
  1 21  1  0
  1 22  1  0
  1 23  1  0
  2 24  1  0
  3 25  1  0
  9 26  1  0
 10 27  1  0
 13 28  1  0
 15 29  1  0
 17 30  1  0
 18 31  1  0
 20 32  1  0
M  END
>  <Energy>  (186) 
12.859047663140288

>  <compound_id>  (186) 
4888

>  <target_id>  (186) 
1

>  <reference_id>  (186) 
76

>  <inspiration_ids>  (186) 
[94, 76]

>  <energy_score>  (186) 
-24.374516666037948

>  <distance_score>  (186) 
15.919807095265208

>  <path>  (186) 
/opt/xchem-fragalysis-2/maxwin/BulkDock/SCRATCH/511018/C4888-P76/C4888-P76.minimised.mol

>  <scratch_subdir>  (186) 
/opt/xchem-fragalysis-2/maxwin/BulkDock/SCRATCH/511018/C4888-P76

>  <fragmenstein_runtime>  (186) 
15.58505654335022

>  <fragmenstein_outcome>  (186) 
too moved

>  <fragmenstein_mode>  (186) 
expansion

>  <fragmenstein_error>  (186) 


$$$$
C4893-P94
     RDKit          3D

 42 44  0  0  0  0  0  0  0  0999 V2000
   -2.8108  -18.6692   26.3443 C   0  0  0  0  0  0  0  0  0  0  0  0
   -2.6160  -17.1794   26.3391 C   0  0  0  0  0  0  0  0  0  0  0  0
   -2.3656  -16.0841   24.9737 C   0  0  0  0  0  0  0  0  0  0  0  0
   -1.3880  -14.8510   24.7430 C   0  0  0  0  0  0  0  0  0  0  0  0
    0.5264  -14.2276   24.6532 C   0  0  0  0  0  0  0  0  0  0  0  0
    0.8498  -13.6990   25.7278 O   0  0  0  0  0  0  0  0  0  0  0  0
    1.6780  -14.4507   23.3717 N   0  0  0  0  0  0  0  0  0  0  0  0
    3.3347  -13.9489   23.2118 C   0  0  0  0  0  0  0  0  0  0  0  0
    4.2636  -13.9707   21.9210 C   0  0  0  0  0  0  0  0  0  0  0  0
    5.2954  -15.0948   21.9837 C   0  0  0  0  0  0  0  0  0  0  0  0
    5.1411  -12.7687   21.7534 N   0  0  0  0  0  0  0  0  0  0  0  0
    6.0864  -12.4242   20.7160 C   0  0  0  0  0  0  0  0  0  0  0  0
    6.3490  -12.9751   19.6877 O   0  0  0  0  0  0  0  0  0  0  0  0
    6.9028  -11.1899   21.0039 C   0  0  0  0  0  0  0  0  0  0  0  0
    6.6814  -10.1047   21.9262 C   0  0  0  0  0  0  0  0  0  0  0  0
    7.6417   -9.1135   21.8638 C   0  0  0  0  0  0  0  0  0  0  0  0
    8.8666   -9.4858   20.7453 S   0  0  0  0  0  0  0  0  0  0  0  0
    8.0658  -10.9212   20.2806 C   0  0  0  0  0  0  0  0  0  0  0  0
   -1.9350  -14.3671   25.9985 C   0  0  0  0  0  0  0  0  0  0  0  0
   -2.0475  -15.1065   27.5526 C   0  0  0  0  0  0  0  0  0  0  0  0
   -2.2936  -14.6328   28.8364 N   0  0  0  0  0  0  0  0  0  0  0  0
   -2.4844  -15.6815   29.6140 C   0  0  0  0  0  0  0  0  0  0  0  0
   -2.4516  -16.8625   28.9249 N   0  0  0  0  0  0  0  0  0  0  0  0
   -2.3070  -16.5429   27.6040 C   0  0  0  0  0  0  0  0  0  0  0  0
   -2.7864  -19.0511   27.3720 H   0  0  0  0  0  0  0  0  0  0  0  0
   -1.9800  -19.1680   25.8420 H   0  0  0  0  0  0  0  0  0  0  0  0
   -3.7710  -19.0083   25.9548 H   0  0  0  0  0  0  0  0  0  0  0  0
   -3.3229  -15.7215   24.6435 H   0  0  0  0  0  0  0  0  0  0  0  0
    1.1814  -14.8210   22.5523 H   0  0  0  0  0  0  0  0  0  0  0  0
    3.2146  -12.9062   23.4932 H   0  0  0  0  0  0  0  0  0  0  0  0
    3.8770  -14.4053   24.0463 H   0  0  0  0  0  0  0  0  0  0  0  0
    3.6892  -14.0848   20.9995 H   0  0  0  0  0  0  0  0  0  0  0  0
    5.8585  -15.1855   21.0487 H   0  0  0  0  0  0  0  0  0  0  0  0
    4.8259  -16.0651   22.1621 H   0  0  0  0  0  0  0  0  0  0  0  0
    6.0187  -14.9313   22.7918 H   0  0  0  0  0  0  0  0  0  0  0  0
    5.2436  -12.1213   22.5200 H   0  0  0  0  0  0  0  0  0  0  0  0
    5.8339  -10.0259   22.5944 H   0  0  0  0  0  0  0  0  0  0  0  0
    7.6868   -8.2014   22.4438 H   0  0  0  0  0  0  0  0  0  0  0  0
    8.4945  -11.5352   19.4978 H   0  0  0  0  0  0  0  0  0  0  0  0
   -2.2323  -13.3370   25.7729 H   0  0  0  0  0  0  0  0  0  0  0  0
   -2.6756  -15.6427   30.6783 H   0  0  0  0  0  0  0  0  0  0  0  0
   -2.6900  -17.7653   29.3088 H   0  0  0  0  0  0  0  0  0  0  0  0
  1  2  1  0
  2  3  2  0
  3  4  1  0
  4  5  1  0
  5  6  2  0
  5  7  1  0
  7  8  1  0
  8  9  1  0
  9 10  1  0
  9 11  1  0
 11 12  1  0
 12 13  2  0
 12 14  1  0
 14 15  1  0
 15 16  2  0
 16 17  1  0
 17 18  1  0
  4 19  2  0
 19 20  1  0
 20 21  1  0
 21 22  2  0
 22 23  1  0
 23 24  1  0
 24  2  1  0
 18 14  2  0
 24 20  2  0
  1 25  1  0
  1 26  1  0
  1 27  1  0
  3 28  1  0
  7 29  1  0
  8 30  1  0
  8 31  1  0
  9 32  1  0
 10 33  1  0
 10 34  1  0
 10 35  1  0
 11 36  1  0
 15 37  1  0
 16 38  1  0
 18 39  1  0
 19 40  1  0
 22 41  1  0
 23 42  1  0
M  END
>  <Energy>  (187) 
377.44442699153871

>  <compound_id>  (187) 
4893

>  <target_id>  (187) 
1

>  <reference_id>  (187) 
94

>  <inspiration_ids>  (187) 
[94, 76]

>  <energy_score>  (187) 
332.86338227819056

>  <distance_score>  (187) 
15.392907006162257

>  <path>  (187) 
/opt/xchem-fragalysis-2/maxwin/BulkDock/SCRATCH/511018/C4893-P94/C4893-P94.minimised.mol

>  <scratch_subdir>  (187) 
/opt/xchem-fragalysis-2/maxwin/BulkDock/SCRATCH/511018/C4893-P94

>  <fragmenstein_runtime>  (187) 
26.83654522895813

>  <fragmenstein_outcome>  (187) 
too moved

>  <fragmenstein_mode>  (187) 
expansion

>  <fragmenstein_error>  (187) 


$$$$
C4893-P76
     RDKit          3D

 42 44  0  0  0  0  0  0  0  0999 V2000
   -7.8487  -12.8001   25.5969 C   0  0  0  0  0  0  0  0  0  0  0  0
   -7.8067  -12.7522   24.1002 C   0  0  0  0  0  0  0  0  0  0  0  0
   -6.6166  -12.4218   23.3538 C   0  0  0  0  0  0  0  0  0  0  0  0
   -6.4496  -12.2456   21.9007 C   0  0  0  0  0  0  0  0  0  0  0  0
   -4.8768  -11.6062   20.7307 C   0  0  0  0  0  0  0  0  0  0  0  0
   -4.8538  -12.1567   19.6609 O   0  0  0  0  0  0  0  0  0  0  0  0
   -3.7188  -10.5519   21.2776 N   0  0  0  0  0  0  0  0  0  0  0  0
   -2.4033  -10.0736   20.6416 C   0  0  0  0  0  0  0  0  0  0  0  0
   -1.9788   -8.5221   20.5596 C   0  0  0  0  0  0  0  0  0  0  0  0
   -1.5234   -7.9861   21.9140 C   0  0  0  0  0  0  0  0  0  0  0  0
   -0.8127   -8.1854   19.7003 N   0  0  0  0  0  0  0  0  0  0  0  0
   -0.2239   -6.9123   19.3609 C   0  0  0  0  0  0  0  0  0  0  0  0
   -0.5736   -5.7973   19.6199 O   0  0  0  0  0  0  0  0  0  0  0  0
    1.1000   -7.0130   18.6498 C   0  0  0  0  0  0  0  0  0  0  0  0
    1.5316   -7.9085   17.6116 C   0  0  0  0  0  0  0  0  0  0  0  0
    2.8249   -7.6792   17.1774 C   0  0  0  0  0  0  0  0  0  0  0  0
    3.5633   -6.3880   18.0136 S   0  0  0  0  0  0  0  0  0  0  0  0
    2.1373   -6.1192   18.9254 C   0  0  0  0  0  0  0  0  0  0  0  0
   -7.7789  -12.3805   21.2473 C   0  0  0  0  0  0  0  0  0  0  0  0
   -8.9495  -12.8800   21.9503 C   0  0  0  0  0  0  0  0  0  0  0  0
  -10.1625  -13.3400   21.4722 N   0  0  0  0  0  0  0  0  0  0  0  0
  -10.8167  -13.8193   22.5095 C   0  0  0  0  0  0  0  0  0  0  0  0
  -10.1085  -13.6587   23.6593 N   0  0  0  0  0  0  0  0  0  0  0  0
   -8.9048  -13.0832   23.3259 C   0  0  0  0  0  0  0  0  0  0  0  0
   -8.8421  -12.5136   25.9597 H   0  0  0  0  0  0  0  0  0  0  0  0
   -7.1452  -12.0907   26.0365 H   0  0  0  0  0  0  0  0  0  0  0  0
   -7.6380  -13.8090   25.9601 H   0  0  0  0  0  0  0  0  0  0  0  0
   -5.7424  -12.3365   23.9875 H   0  0  0  0  0  0  0  0  0  0  0  0
   -3.9376  -10.2988   22.2402 H   0  0  0  0  0  0  0  0  0  0  0  0
   -1.6063  -10.6296   21.1375 H   0  0  0  0  0  0  0  0  0  0  0  0
   -2.4538  -10.4523   19.6142 H   0  0  0  0  0  0  0  0  0  0  0  0
   -2.8249   -7.9300   20.1971 H   0  0  0  0  0  0  0  0  0  0  0  0
   -0.5141   -8.3265   22.1695 H   0  0  0  0  0  0  0  0  0  0  0  0
   -1.5303   -6.8919   21.9447 H   0  0  0  0  0  0  0  0  0  0  0  0
   -2.2004   -8.3541   22.6767 H   0  0  0  0  0  0  0  0  0  0  0  0
   -0.1944   -8.9342   19.3819 H   0  0  0  0  0  0  0  0  0  0  0  0
    0.9009   -8.6822   17.1932 H   0  0  0  0  0  0  0  0  0  0  0  0
    3.3640   -8.2155   16.4090 H   0  0  0  0  0  0  0  0  0  0  0  0
    2.1104   -5.3125   19.6464 H   0  0  0  0  0  0  0  0  0  0  0  0
   -7.8463  -12.2443   20.1699 H   0  0  0  0  0  0  0  0  0  0  0  0
  -11.8003  -14.2685   22.4812 H   0  0  0  0  0  0  0  0  0  0  0  0
  -10.4007  -13.9326   24.5856 H   0  0  0  0  0  0  0  0  0  0  0  0
  1  2  1  0
  2  3  2  0
  3  4  1  0
  4  5  1  0
  5  6  2  0
  5  7  1  0
  7  8  1  0
  8  9  1  0
  9 10  1  0
  9 11  1  0
 11 12  1  0
 12 13  2  0
 12 14  1  0
 14 15  1  0
 15 16  2  0
 16 17  1  0
 17 18  1  0
  4 19  2  0
 19 20  1  0
 20 21  1  0
 21 22  2  0
 22 23  1  0
 23 24  1  0
 24  2  1  0
 18 14  2  0
 24 20  2  0
  1 25  1  0
  1 26  1  0
  1 27  1  0
  3 28  1  0
  7 29  1  0
  8 30  1  0
  8 31  1  0
  9 32  1  0
 10 33  1  0
 10 34  1  0
 10 35  1  0
 11 36  1  0
 15 37  1  0
 16 38  1  0
 18 39  1  0
 19 40  1  0
 22 41  1  0
 23 42  1  0
M  END
>  <Energy>  (188) 
155.34399884818697

>  <compound_id>  (188) 
4893

>  <target_id>  (188) 
1

>  <reference_id>  (188) 
76

>  <inspiration_ids>  (188) 
[94, 76]

>  <energy_score>  (188) 
110.76295413484826

>  <distance_score>  (188) 
16.343926163043143

>  <path>  (188) 
/opt/xchem-fragalysis-2/maxwin/BulkDock/SCRATCH/511018/C4893-P76/C4893-P76.minimised.mol

>  <scratch_subdir>  (188) 
/opt/xchem-fragalysis-2/maxwin/BulkDock/SCRATCH/511018/C4893-P76

>  <fragmenstein_runtime>  (188) 
17.14510679244995

>  <fragmenstein_outcome>  (188) 
too moved

>  <fragmenstein_mode>  (188) 
expansion

>  <fragmenstein_error>  (188) 


$$$$
C4894-P94
     RDKit          3D

 34 37  0  0  0  0  0  0  0  0999 V2000
   -3.6326  -16.3813   28.4367 O   0  0  0  0  0  0  0  0  0  0  0  0
   -3.7795  -17.1556   27.4988 C   0  0  0  0  0  0  0  0  0  0  0  0
   -2.5163  -16.7525   26.1157 C   0  0  0  0  0  0  0  0  0  0  0  0
   -1.8525  -15.0430   25.2308 N   0  0  0  0  0  0  0  0  0  0  0  0
   -2.3515  -15.3451   24.0613 N   0  0  0  0  0  0  0  0  0  0  0  0
   -1.4786  -15.0049   23.1009 N   0  0  0  0  0  0  0  0  0  0  0  0
   -0.4704  -14.2181   23.2182 N   0  0  0  0  0  0  0  0  0  0  0  0
   -0.2430  -14.3521   24.4611 C   0  0  0  0  0  0  0  0  0  0  0  0
    1.6945  -13.3243   24.4511 C   0  0  0  0  0  0  0  0  0  0  0  0
    1.8150  -12.0301   23.8211 C   0  0  0  0  0  0  0  0  0  0  0  0
    2.7920  -11.5496   23.0867 C   0  0  0  0  0  0  0  0  0  0  0  0
    3.4122  -12.7330   22.4399 S   0  0  0  0  0  0  0  0  0  0  0  0
    2.9302  -13.7391   23.7488 C   0  0  0  0  0  0  0  0  0  0  0  0
   -5.1448  -18.4353   27.3772 N   0  0  0  0  0  0  0  0  0  0  0  0
   -6.2748  -18.7101   28.2072 C   0  0  0  0  0  0  0  0  0  0  0  0
   -6.3798  -19.9328   27.4557 N   0  0  0  0  0  0  0  0  0  0  0  0
   -7.4523  -20.7295   27.5433 C   0  0  0  0  0  0  0  0  0  0  0  0
   -7.6476  -22.2578   27.5366 C   0  0  0  0  0  0  0  0  0  0  0  0
   -9.0142  -23.0302   27.9897 C   0  0  0  0  0  0  0  0  0  0  0  0
  -10.2059  -22.3217   28.3526 C   0  0  0  0  0  0  0  0  0  0  0  0
  -10.0212  -20.9213   28.6388 C   0  0  0  0  0  0  0  0  0  0  0  0
   -8.5961  -19.6822   28.2391 C   0  0  0  0  0  0  0  0  0  0  0  0
   -7.6760  -18.4564   28.5146 N   0  0  0  0  0  0  0  0  0  0  0  0
   -2.1600  -16.1292   27.0249 H   0  0  0  0  0  0  0  0  0  0  0  0
   -3.1645  -16.5551   25.3227 H   0  0  0  0  0  0  0  0  0  0  0  0
    0.9610  -11.6420   23.2532 H   0  0  0  0  0  0  0  0  0  0  0  0
    3.1886  -10.6061   22.6631 H   0  0  0  0  0  0  0  0  0  0  0  0
    3.3561  -14.7249   23.6392 H   0  0  0  0  0  0  0  0  0  0  0  0
   -5.0030  -19.0028   26.5619 H   0  0  0  0  0  0  0  0  0  0  0  0
   -6.7689  -22.7928   27.1929 H   0  0  0  0  0  0  0  0  0  0  0  0
   -9.1400  -24.1067   27.9549 H   0  0  0  0  0  0  0  0  0  0  0  0
  -11.1029  -22.8489   28.6666 H   0  0  0  0  0  0  0  0  0  0  0  0
  -10.6659  -20.6130   29.4805 H   0  0  0  0  0  0  0  0  0  0  0  0
   -7.8846  -17.8483   29.2837 H   0  0  0  0  0  0  0  0  0  0  0  0
  1  2  2  0
  2  3  1  0
  3  4  1  0
  4  5  1  0
  5  6  2  0
  6  7  1  0
  7  8  2  0
  8  9  1  0
  9 10  1  0
 10 11  2  0
 11 12  1  0
 12 13  1  0
  2 14  1  0
 14 15  1  0
 15 16  2  0
 16 17  1  0
 17 18  2  0
 18 19  1  0
 19 20  2  0
 20 21  1  0
 21 22  2  0
 22 23  1  0
  8  4  1  0
 13  9  2  0
 23 15  1  0
 22 17  1  0
  3 24  1  0
  3 25  1  0
 10 26  1  0
 11 27  1  0
 13 28  1  0
 14 29  1  0
 18 30  1  0
 19 31  1  0
 20 32  1  0
 21 33  1  0
 23 34  1  0
M  END
>  <Energy>  (189) 
912.65584531298771

>  <compound_id>  (189) 
4894

>  <target_id>  (189) 
1

>  <reference_id>  (189) 
94

>  <inspiration_ids>  (189) 
[94, 76]

>  <energy_score>  (189) 
850.1102052171842

>  <distance_score>  (189) 
12.363572087334534

>  <path>  (189) 
/opt/xchem-fragalysis-2/maxwin/BulkDock/SCRATCH/511018/C4894-P94/C4894-P94.minimised.mol

>  <scratch_subdir>  (189) 
/opt/xchem-fragalysis-2/maxwin/BulkDock/SCRATCH/511018/C4894-P94

>  <fragmenstein_runtime>  (189) 
23.972471475601196

>  <fragmenstein_outcome>  (189) 
too moved

>  <fragmenstein_mode>  (189) 
expansion

>  <fragmenstein_error>  (189) 


$$$$
C4894-P76
     RDKit          3D

 34 37  0  0  0  0  0  0  0  0999 V2000
   -2.8569  -17.1132   18.2394 O   0  0  0  0  0  0  0  0  0  0  0  0
   -3.4981  -17.3820   17.2600 C   0  0  0  0  0  0  0  0  0  0  0  0
   -2.9266  -16.8496   15.8605 C   0  0  0  0  0  0  0  0  0  0  0  0
   -2.6958  -15.3494   15.6888 N   0  0  0  0  0  0  0  0  0  0  0  0
   -3.8887  -14.7626   15.3316 N   0  0  0  0  0  0  0  0  0  0  0  0
   -3.8170  -14.6745   14.0065 N   0  0  0  0  0  0  0  0  0  0  0  0
   -2.5140  -14.8053   13.5779 N   0  0  0  0  0  0  0  0  0  0  0  0
   -1.7884  -14.7821   14.6896 C   0  0  0  0  0  0  0  0  0  0  0  0
   -0.4090  -13.8640   14.6940 C   0  0  0  0  0  0  0  0  0  0  0  0
    0.2171  -13.1454   15.7604 C   0  0  0  0  0  0  0  0  0  0  0  0
    1.3718  -12.4814   15.3761 C   0  0  0  0  0  0  0  0  0  0  0  0
    1.6770  -12.6369   13.7073 S   0  0  0  0  0  0  0  0  0  0  0  0
    0.2618  -13.5921   13.5082 C   0  0  0  0  0  0  0  0  0  0  0  0
   -4.7042  -18.2101   17.1026 N   0  0  0  0  0  0  0  0  0  0  0  0
   -5.5085  -18.8495   18.0551 C   0  0  0  0  0  0  0  0  0  0  0  0
   -5.5781  -18.7234   19.3724 N   0  0  0  0  0  0  0  0  0  0  0  0
   -6.5365  -19.6367   19.8333 C   0  0  0  0  0  0  0  0  0  0  0  0
   -7.0300  -19.9403   21.1184 C   0  0  0  0  0  0  0  0  0  0  0  0
   -7.9042  -21.0289   21.2852 C   0  0  0  0  0  0  0  0  0  0  0  0
   -8.3835  -21.7397   20.1944 C   0  0  0  0  0  0  0  0  0  0  0  0
   -7.9844  -21.3959   18.9034 C   0  0  0  0  0  0  0  0  0  0  0  0
   -7.0521  -20.3557   18.7684 C   0  0  0  0  0  0  0  0  0  0  0  0
   -6.4396  -19.7993   17.6687 N   0  0  0  0  0  0  0  0  0  0  0  0
   -1.9650  -17.3308   15.6575 H   0  0  0  0  0  0  0  0  0  0  0  0
   -3.6019  -17.1429   15.0473 H   0  0  0  0  0  0  0  0  0  0  0  0
   -0.1869  -13.0952   16.7618 H   0  0  0  0  0  0  0  0  0  0  0  0
    2.0449  -11.8847   15.9734 H   0  0  0  0  0  0  0  0  0  0  0  0
   -0.0005  -13.9400   12.5179 H   0  0  0  0  0  0  0  0  0  0  0  0
   -4.9277  -18.2860   16.1209 H   0  0  0  0  0  0  0  0  0  0  0  0
   -6.6958  -19.3630   21.9710 H   0  0  0  0  0  0  0  0  0  0  0  0
   -8.1990  -21.3485   22.2717 H   0  0  0  0  0  0  0  0  0  0  0  0
   -9.0668  -22.5710   20.3451 H   0  0  0  0  0  0  0  0  0  0  0  0
   -8.3560  -21.9416   18.0425 H   0  0  0  0  0  0  0  0  0  0  0  0
   -6.5863  -20.1035   16.7211 H   0  0  0  0  0  0  0  0  0  0  0  0
  1  2  2  0
  2  3  1  0
  3  4  1  0
  4  5  1  0
  5  6  2  0
  6  7  1  0
  7  8  2  0
  8  9  1  0
  9 10  1  0
 10 11  2  0
 11 12  1  0
 12 13  1  0
  2 14  1  0
 14 15  1  0
 15 16  2  0
 16 17  1  0
 17 18  2  0
 18 19  1  0
 19 20  2  0
 20 21  1  0
 21 22  2  0
 22 23  1  0
  8  4  1  0
 13  9  2  0
 23 15  1  0
 22 17  1  0
  3 24  1  0
  3 25  1  0
 10 26  1  0
 11 27  1  0
 13 28  1  0
 14 29  1  0
 18 30  1  0
 19 31  1  0
 20 32  1  0
 21 33  1  0
 23 34  1  0
M  END
>  <Energy>  (190) 
52.37180999064568

>  <compound_id>  (190) 
4894

>  <target_id>  (190) 
1

>  <reference_id>  (190) 
76

>  <inspiration_ids>  (190) 
[94, 76]

>  <energy_score>  (190) 
-10.173830105154252

>  <distance_score>  (190) 
15.483918765032936

>  <path>  (190) 
/opt/xchem-fragalysis-2/maxwin/BulkDock/SCRATCH/511018/C4894-P76/C4894-P76.minimised.mol

>  <scratch_subdir>  (190) 
/opt/xchem-fragalysis-2/maxwin/BulkDock/SCRATCH/511018/C4894-P76

>  <fragmenstein_runtime>  (190) 
14.226928234100342

>  <fragmenstein_outcome>  (190) 
too moved

>  <fragmenstein_mode>  (190) 
expansion

>  <fragmenstein_error>  (190) 


$$$$
C4895-P94
     RDKit          3D

 40 43  0  0  0  0  0  0  0  0999 V2000
    0.0497  -16.6860   21.3562 O   0  0  0  0  0  0  0  0  0  0  0  0
    0.2353  -15.5480   21.7737 C   0  0  0  0  0  0  0  0  0  0  0  0
    1.9945  -14.7123   20.7951 C   0  0  0  0  0  0  0  0  0  0  0  0
    3.3579  -13.3484   21.0468 N   0  0  0  0  0  0  0  0  0  0  0  0
    3.3541  -12.5227   22.2682 N   0  0  0  0  0  0  0  0  0  0  0  0
    4.2184  -11.5557   22.0552 N   0  0  0  0  0  0  0  0  0  0  0  0
    5.0797  -11.8244   20.9544 N   0  0  0  0  0  0  0  0  0  0  0  0
    4.6347  -12.8578   20.2648 C   0  0  0  0  0  0  0  0  0  0  0  0
    5.5894  -13.0977   18.9488 C   0  0  0  0  0  0  0  0  0  0  0  0
    5.5773  -14.0714   17.9244 C   0  0  0  0  0  0  0  0  0  0  0  0
    6.5520  -13.8614   16.9633 C   0  0  0  0  0  0  0  0  0  0  0  0
    7.5493  -12.5230   17.3156 S   0  0  0  0  0  0  0  0  0  0  0  0
    6.6765  -12.2412   18.7534 C   0  0  0  0  0  0  0  0  0  0  0  0
   -0.9324  -14.9141   23.2449 N   0  0  0  0  0  0  0  0  0  0  0  0
   -2.3278  -15.8719   24.3642 C   0  0  0  0  0  0  0  0  0  0  0  0
   -2.4659  -17.8099   25.2881 C   0  0  0  0  0  0  0  0  0  0  0  0
   -3.6367  -19.6088   25.0171 C   0  0  0  0  0  0  0  0  0  0  0  0
   -3.9828  -20.5787   24.1870 N   0  0  0  0  0  0  0  0  0  0  0  0
   -5.3767  -21.2183   24.4641 C   0  0  0  0  0  0  0  0  0  0  0  0
   -6.1921  -22.1028   23.6891 C   0  0  0  0  0  0  0  0  0  0  0  0
   -6.6794  -23.1257   24.4368 C   0  0  0  0  0  0  0  0  0  0  0  0
   -6.6906  -22.9390   25.8425 C   0  0  0  0  0  0  0  0  0  0  0  0
   -6.1265  -21.9789   26.6307 C   0  0  0  0  0  0  0  0  0  0  0  0
   -5.4941  -21.1500   25.7916 C   0  0  0  0  0  0  0  0  0  0  0  0
   -5.2159  -19.8710   25.6943 N   0  0  0  0  0  0  0  0  0  0  0  0
    2.3096  -14.9035   19.7644 H   0  0  0  0  0  0  0  0  0  0  0  0
    2.8583  -14.7803   21.5218 H   0  0  0  0  0  0  0  0  0  0  0  0
    4.8818  -14.8949   17.8658 H   0  0  0  0  0  0  0  0  0  0  0  0
    6.7266  -14.4445   16.0699 H   0  0  0  0  0  0  0  0  0  0  0  0
    7.0099  -11.4339   19.3827 H   0  0  0  0  0  0  0  0  0  0  0  0
   -0.6023  -13.9887   23.5476 H   0  0  0  0  0  0  0  0  0  0  0  0
   -2.2558  -15.1985   25.2188 H   0  0  0  0  0  0  0  0  0  0  0  0
   -3.2678  -15.5719   23.8969 H   0  0  0  0  0  0  0  0  0  0  0  0
   -1.5367  -18.2321   25.7074 H   0  0  0  0  0  0  0  0  0  0  0  0
   -2.6629  -17.3956   26.3208 H   0  0  0  0  0  0  0  0  0  0  0  0
   -6.2175  -22.1181   22.6036 H   0  0  0  0  0  0  0  0  0  0  0  0
   -7.2501  -23.9000   23.9568 H   0  0  0  0  0  0  0  0  0  0  0  0
   -7.5326  -23.3134   26.3751 H   0  0  0  0  0  0  0  0  0  0  0  0
   -6.4355  -21.8121   27.6253 H   0  0  0  0  0  0  0  0  0  0  0  0
   -5.5167  -19.1908   26.3770 H   0  0  0  0  0  0  0  0  0  0  0  0
  1  2  2  0
  2  3  1  0
  3  4  1  0
  4  5  1  0
  5  6  2  0
  6  7  1  0
  7  8  2  0
  8  9  1  0
  9 10  1  0
 10 11  2  0
 11 12  1  0
 12 13  1  0
  2 14  1  0
 14 15  1  0
 15 16  1  0
 16 17  1  0
 17 18  2  0
 18 19  1  0
 19 20  2  0
 20 21  1  0
 21 22  2  0
 22 23  1  0
 23 24  2  0
 24 25  1  0
  8  4  1  0
 13  9  2  0
 25 17  1  0
 24 19  1  0
  3 26  1  0
  3 27  1  0
 10 28  1  0
 11 29  1  0
 13 30  1  0
 14 31  1  0
 15 32  1  0
 15 33  1  0
 16 34  1  0
 16 35  1  0
 20 36  1  0
 21 37  1  0
 22 38  1  0
 23 39  1  0
 25 40  1  0
M  END
>  <Energy>  (191) 
926.03700117214635

>  <compound_id>  (191) 
4895

>  <target_id>  (191) 
1

>  <reference_id>  (191) 
94

>  <inspiration_ids>  (191) 
[94, 76]

>  <energy_score>  (191) 
857.6115989651271

>  <distance_score>  (191) 
11.07475909502039

>  <path>  (191) 
/opt/xchem-fragalysis-2/maxwin/BulkDock/SCRATCH/511018/C4895-P94/C4895-P94.minimised.mol

>  <scratch_subdir>  (191) 
/opt/xchem-fragalysis-2/maxwin/BulkDock/SCRATCH/511018/C4895-P94

>  <fragmenstein_runtime>  (191) 
48.790340185165405

>  <fragmenstein_outcome>  (191) 
too moved

>  <fragmenstein_mode>  (191) 
expansion

>  <fragmenstein_error>  (191) 


$$$$
C4895-P76
     RDKit          3D

 40 43  0  0  0  0  0  0  0  0999 V2000
    1.3095  -13.1058   28.4354 O   0  0  0  0  0  0  0  0  0  0  0  0
    0.4828  -13.3179   27.5643 C   0  0  0  0  0  0  0  0  0  0  0  0
    1.2252  -13.1031   25.8121 C   0  0  0  0  0  0  0  0  0  0  0  0
    2.6894  -12.9810   24.5328 N   0  0  0  0  0  0  0  0  0  0  0  0
    3.7313  -13.9283   24.9550 N   0  0  0  0  0  0  0  0  0  0  0  0
    3.7635  -14.7766   23.9613 N   0  0  0  0  0  0  0  0  0  0  0  0
    2.9908  -14.2909   22.9575 N   0  0  0  0  0  0  0  0  0  0  0  0
    3.1772  -12.8535   22.8771 C   0  0  0  0  0  0  0  0  0  0  0  0
    4.4784  -12.4171   21.2208 C   0  0  0  0  0  0  0  0  0  0  0  0
    6.0237  -11.6887   21.1028 C   0  0  0  0  0  0  0  0  0  0  0  0
    6.8417  -11.8870   20.0122 C   0  0  0  0  0  0  0  0  0  0  0  0
    6.0139  -12.7582   18.8631 S   0  0  0  0  0  0  0  0  0  0  0  0
    4.6027  -12.9035   19.8922 C   0  0  0  0  0  0  0  0  0  0  0  0
   -1.1114  -13.8655   27.7459 N   0  0  0  0  0  0  0  0  0  0  0  0
   -1.9741  -14.3821   29.1570 C   0  0  0  0  0  0  0  0  0  0  0  0
   -3.5045  -15.5124   29.8372 C   0  0  0  0  0  0  0  0  0  0  0  0
   -5.5105  -15.8200   29.8817 C   0  0  0  0  0  0  0  0  0  0  0  0
   -6.2985  -16.8437   29.5777 N   0  0  0  0  0  0  0  0  0  0  0  0
   -7.5528  -16.3374   29.2043 C   0  0  0  0  0  0  0  0  0  0  0  0
   -8.6191  -16.8696   28.4412 C   0  0  0  0  0  0  0  0  0  0  0  0
   -9.7528  -16.1090   28.1291 C   0  0  0  0  0  0  0  0  0  0  0  0
   -9.8497  -14.8083   28.5975 C   0  0  0  0  0  0  0  0  0  0  0  0
   -8.8039  -14.2321   29.3282 C   0  0  0  0  0  0  0  0  0  0  0  0
   -7.6711  -15.0191   29.5668 C   0  0  0  0  0  0  0  0  0  0  0  0
   -6.4281  -14.7120   30.0318 N   0  0  0  0  0  0  0  0  0  0  0  0
    1.2139  -12.0136   25.9083 H   0  0  0  0  0  0  0  0  0  0  0  0
    2.0279  -13.5640   26.3978 H   0  0  0  0  0  0  0  0  0  0  0  0
    6.4560  -11.1273   21.9368 H   0  0  0  0  0  0  0  0  0  0  0  0
    7.8502  -11.5306   19.8547 H   0  0  0  0  0  0  0  0  0  0  0  0
    3.9446  -13.4753   19.2822 H   0  0  0  0  0  0  0  0  0  0  0  0
   -1.5737  -13.8631   26.8446 H   0  0  0  0  0  0  0  0  0  0  0  0
   -1.1264  -14.6974   29.7854 H   0  0  0  0  0  0  0  0  0  0  0  0
   -2.1939  -13.3505   29.4814 H   0  0  0  0  0  0  0  0  0  0  0  0
   -3.8026  -14.4952   30.0154 H   0  0  0  0  0  0  0  0  0  0  0  0
   -3.1123  -15.8930   30.7947 H   0  0  0  0  0  0  0  0  0  0  0  0
   -8.5826  -17.8954   28.1214 H   0  0  0  0  0  0  0  0  0  0  0  0
  -10.5636  -16.5434   27.5572 H   0  0  0  0  0  0  0  0  0  0  0  0
  -10.7357  -14.2170   28.3771 H   0  0  0  0  0  0  0  0  0  0  0  0
   -8.8470  -13.1922   29.6365 H   0  0  0  0  0  0  0  0  0  0  0  0
   -6.1278  -13.7620   30.1885 H   0  0  0  0  0  0  0  0  0  0  0  0
  1  2  2  0
  2  3  1  0
  3  4  1  0
  4  5  1  0
  5  6  2  0
  6  7  1  0
  7  8  2  0
  8  9  1  0
  9 10  1  0
 10 11  2  0
 11 12  1  0
 12 13  1  0
  2 14  1  0
 14 15  1  0
 15 16  1  0
 16 17  1  0
 17 18  2  0
 18 19  1  0
 19 20  2  0
 20 21  1  0
 21 22  2  0
 22 23  1  0
 23 24  2  0
 24 25  1  0
  8  4  1  0
 13  9  2  0
 25 17  1  0
 24 19  1  0
  3 26  1  0
  3 27  1  0
 10 28  1  0
 11 29  1  0
 13 30  1  0
 14 31  1  0
 15 32  1  0
 15 33  1  0
 16 34  1  0
 16 35  1  0
 20 36  1  0
 21 37  1  0
 22 38  1  0
 23 39  1  0
 25 40  1  0
M  END
>  <Energy>  (192) 
731.53755868733003

>  <compound_id>  (192) 
4895

>  <target_id>  (192) 
1

>  <reference_id>  (192) 
76

>  <inspiration_ids>  (192) 
[94, 76]

>  <energy_score>  (192) 
663.1121564803049

>  <distance_score>  (192) 
11.970272814893272

>  <path>  (192) 
/opt/xchem-fragalysis-2/maxwin/BulkDock/SCRATCH/511018/C4895-P76/C4895-P76.minimised.mol

>  <scratch_subdir>  (192) 
/opt/xchem-fragalysis-2/maxwin/BulkDock/SCRATCH/511018/C4895-P76

>  <fragmenstein_runtime>  (192) 
25.802118062973022

>  <fragmenstein_outcome>  (192) 
too moved

>  <fragmenstein_mode>  (192) 
expansion

>  <fragmenstein_error>  (192) 


$$$$
C4896-P94
     RDKit          3D

 40 42  0  0  0  0  0  0  0  0999 V2000
    5.5859   -6.5430   22.8356 O   0  0  0  0  0  0  0  0  0  0  0  0
    5.4179   -5.9286   21.8114 C   0  0  0  0  0  0  0  0  0  0  0  0
    6.3051   -4.9563   21.1083 N   0  0  0  0  0  0  0  0  0  0  0  0
    7.6715   -4.3504   21.5200 C   0  0  0  0  0  0  0  0  0  0  0  0
    9.3607   -4.3954   20.4315 C   0  0  0  0  0  0  0  0  0  0  0  0
   11.3543   -4.9910   20.5978 C   0  0  0  0  0  0  0  0  0  0  0  0
   12.3264   -4.6882   21.8487 C   0  0  0  0  0  0  0  0  0  0  0  0
   13.6806   -4.8335   21.6818 C   0  0  0  0  0  0  0  0  0  0  0  0
   14.0705   -4.9850   20.0613 S   0  0  0  0  0  0  0  0  0  0  0  0
   12.4198   -4.9964   19.6108 C   0  0  0  0  0  0  0  0  0  0  0  0
    3.9091   -6.1088   21.1306 C   0  0  0  0  0  0  0  0  0  0  0  0
    3.8825   -5.6891   19.7593 O   0  0  0  0  0  0  0  0  0  0  0  0
    3.2915   -7.5823   21.2800 C   0  0  0  0  0  0  0  0  0  0  0  0
    3.8227   -8.3433   20.1688 O   0  0  0  0  0  0  0  0  0  0  0  0
    1.7199   -7.8750   21.2823 C   0  0  0  0  0  0  0  0  0  0  0  0
    0.7130   -7.3615   21.9878 N   0  0  0  0  0  0  0  0  0  0  0  0
   -0.4174   -8.1558   21.7136 C   0  0  0  0  0  0  0  0  0  0  0  0
   -1.7485   -8.0502   22.1296 C   0  0  0  0  0  0  0  0  0  0  0  0
   -2.7096   -8.9864   21.6977 C   0  0  0  0  0  0  0  0  0  0  0  0
   -2.3838  -10.0111   20.8259 C   0  0  0  0  0  0  0  0  0  0  0  0
   -1.0751  -10.1139   20.3686 C   0  0  0  0  0  0  0  0  0  0  0  0
   -0.1243   -9.1803   20.8373 C   0  0  0  0  0  0  0  0  0  0  0  0
    1.2177   -8.9872   20.6033 N   0  0  0  0  0  0  0  0  0  0  0  0
    5.8069   -4.5663   20.3103 H   0  0  0  0  0  0  0  0  0  0  0  0
    7.7389   -4.7819   22.5333 H   0  0  0  0  0  0  0  0  0  0  0  0
    7.4580   -3.2936   21.7291 H   0  0  0  0  0  0  0  0  0  0  0  0
    9.4731   -3.3872   20.5776 H   0  0  0  0  0  0  0  0  0  0  0  0
    8.8590   -4.2764   19.5667 H   0  0  0  0  0  0  0  0  0  0  0  0
   11.9686   -4.3944   22.8312 H   0  0  0  0  0  0  0  0  0  0  0  0
   14.4493   -4.7348   22.4355 H   0  0  0  0  0  0  0  0  0  0  0  0
   12.3257   -4.8197   18.5497 H   0  0  0  0  0  0  0  0  0  0  0  0
    3.2821   -5.4133   21.7038 H   0  0  0  0  0  0  0  0  0  0  0  0
    2.9536   -5.4436   19.5796 H   0  0  0  0  0  0  0  0  0  0  0  0
    3.6710   -8.0435   22.1951 H   0  0  0  0  0  0  0  0  0  0  0  0
    3.8902   -7.7115   19.4278 H   0  0  0  0  0  0  0  0  0  0  0  0
   -2.0173   -7.2098   22.7551 H   0  0  0  0  0  0  0  0  0  0  0  0
   -3.7275   -8.8773   22.0342 H   0  0  0  0  0  0  0  0  0  0  0  0
   -3.1490  -10.6977   20.4774 H   0  0  0  0  0  0  0  0  0  0  0  0
   -0.8186  -10.8615   19.6307 H   0  0  0  0  0  0  0  0  0  0  0  0
    1.8393   -9.6616   20.1736 H   0  0  0  0  0  0  0  0  0  0  0  0
  1  2  2  0
  2  3  1  0
  3  4  1  0
  4  5  1  0
  5  6  1  0
  6  7  1  0
  7  8  2  0
  8  9  1  0
  9 10  1  0
  2 11  1  0
 11 12  1  0
 11 13  1  0
 13 14  1  0
 13 15  1  0
 15 16  2  0
 16 17  1  0
 17 18  2  0
 18 19  1  0
 19 20  2  0
 20 21  1  0
 21 22  2  0
 22 23  1  0
 10  6  2  0
 23 15  1  0
 22 17  1  0
  3 24  1  0
  4 25  1  0
  4 26  1  0
  5 27  1  0
  5 28  1  0
  7 29  1  0
  8 30  1  0
 10 31  1  0
 11 32  1  0
 12 33  1  0
 13 34  1  0
 14 35  1  0
 18 36  1  0
 19 37  1  0
 20 38  1  0
 21 39  1  0
 23 40  1  0
M  END
>  <Energy>  (193) 
314.23175029210938

>  <compound_id>  (193) 
4896

>  <target_id>  (193) 
1

>  <reference_id>  (193) 
94

>  <inspiration_ids>  (193) 
[94, 76]

>  <energy_score>  (193) 
196.6973114055861

>  <distance_score>  (193) 
17.147640472779614

>  <path>  (193) 
/opt/xchem-fragalysis-2/maxwin/BulkDock/SCRATCH/511018/C4896-P94/C4896-P94.minimised.mol

>  <scratch_subdir>  (193) 
/opt/xchem-fragalysis-2/maxwin/BulkDock/SCRATCH/511018/C4896-P94

>  <fragmenstein_runtime>  (193) 
49.673773527145386

>  <fragmenstein_outcome>  (193) 
too moved

>  <fragmenstein_mode>  (193) 
expansion

>  <fragmenstein_error>  (193) 


$$$$
C4896-P76
     RDKit          3D

 40 42  0  0  0  0  0  0  0  0999 V2000
   -0.3043  -13.3731   23.1032 O   0  0  0  0  0  0  0  0  0  0  0  0
   -0.4741  -14.4801   23.0214 C   0  0  0  0  0  0  0  0  0  0  0  0
    0.7138  -15.2491   21.7570 N   0  0  0  0  0  0  0  0  0  0  0  0
    2.2631  -14.4817   20.6866 C   0  0  0  0  0  0  0  0  0  0  0  0
    3.7771  -13.1076   20.4630 C   0  0  0  0  0  0  0  0  0  0  0  0
    4.7656  -12.1652   19.3283 C   0  0  0  0  0  0  0  0  0  0  0  0
    6.1609  -11.8561   19.6039 C   0  0  0  0  0  0  0  0  0  0  0  0
    6.7496  -11.0475   18.6564 C   0  0  0  0  0  0  0  0  0  0  0  0
    5.6479  -10.6130   17.4309 S   0  0  0  0  0  0  0  0  0  0  0  0
    4.3875  -11.5313   18.1492 C   0  0  0  0  0  0  0  0  0  0  0  0
   -1.8532  -15.5184   24.3563 C   0  0  0  0  0  0  0  0  0  0  0  0
   -2.0989  -14.4603   25.4892 O   0  0  0  0  0  0  0  0  0  0  0  0
   -2.3097  -17.3287   25.4884 C   0  0  0  0  0  0  0  0  0  0  0  0
   -2.6492  -16.9649   26.8963 O   0  0  0  0  0  0  0  0  0  0  0  0
   -2.8692  -19.3246   25.5257 C   0  0  0  0  0  0  0  0  0  0  0  0
   -4.3508  -20.0077   25.9326 N   0  0  0  0  0  0  0  0  0  0  0  0
   -5.2418  -21.0024   25.7945 C   0  0  0  0  0  0  0  0  0  0  0  0
   -6.0529  -21.8693   26.4755 C   0  0  0  0  0  0  0  0  0  0  0  0
   -6.6207  -22.8008   25.5921 C   0  0  0  0  0  0  0  0  0  0  0  0
   -6.6178  -22.7562   24.1876 C   0  0  0  0  0  0  0  0  0  0  0  0
   -6.0902  -21.6244   23.6080 C   0  0  0  0  0  0  0  0  0  0  0  0
   -5.1609  -20.9476   24.5140 C   0  0  0  0  0  0  0  0  0  0  0  0
   -3.4791  -20.4158   24.3147 N   0  0  0  0  0  0  0  0  0  0  0  0
    0.4648  -16.2304   21.6503 H   0  0  0  0  0  0  0  0  0  0  0  0
    2.3445  -15.0160   19.7600 H   0  0  0  0  0  0  0  0  0  0  0  0
    2.8858  -14.5505   21.5883 H   0  0  0  0  0  0  0  0  0  0  0  0
    3.8869  -13.5932   19.4170 H   0  0  0  0  0  0  0  0  0  0  0  0
    4.6132  -13.2554   21.0986 H   0  0  0  0  0  0  0  0  0  0  0  0
    6.6994  -12.2226   20.4657 H   0  0  0  0  0  0  0  0  0  0  0  0
    7.7711  -10.6946   18.6259 H   0  0  0  0  0  0  0  0  0  0  0  0
    3.4151  -11.5395   17.6776 H   0  0  0  0  0  0  0  0  0  0  0  0
   -2.8579  -15.3797   23.9194 H   0  0  0  0  0  0  0  0  0  0  0  0
   -2.1898  -14.8606   26.3688 H   0  0  0  0  0  0  0  0  0  0  0  0
   -1.3517  -17.7615   25.8745 H   0  0  0  0  0  0  0  0  0  0  0  0
   -3.2967  -17.6628   27.1201 H   0  0  0  0  0  0  0  0  0  0  0  0
   -6.1874  -21.9345   27.5328 H   0  0  0  0  0  0  0  0  0  0  0  0
   -7.3836  -23.3959   26.0222 H   0  0  0  0  0  0  0  0  0  0  0  0
   -7.1824  -23.4636   23.5971 H   0  0  0  0  0  0  0  0  0  0  0  0
   -6.0777  -21.5103   22.5260 H   0  0  0  0  0  0  0  0  0  0  0  0
   -2.9369  -20.5749   23.4722 H   0  0  0  0  0  0  0  0  0  0  0  0
  1  2  2  0
  2  3  1  0
  3  4  1  0
  4  5  1  0
  5  6  1  0
  6  7  1  0
  7  8  2  0
  8  9  1  0
  9 10  1  0
  2 11  1  0
 11 12  1  0
 11 13  1  0
 13 14  1  0
 13 15  1  0
 15 16  2  0
 16 17  1  0
 17 18  2  0
 18 19  1  0
 19 20  2  0
 20 21  1  0
 21 22  2  0
 22 23  1  0
 10  6  2  0
 23 15  1  0
 22 17  1  0
  3 24  1  0
  4 25  1  0
  4 26  1  0
  5 27  1  0
  5 28  1  0
  7 29  1  0
  8 30  1  0
 10 31  1  0
 11 32  1  0
 12 33  1  0
 13 34  1  0
 14 35  1  0
 18 36  1  0
 19 37  1  0
 20 38  1  0
 21 39  1  0
 23 40  1  0
M  END
>  <Energy>  (194) 
1136.9986024648804

>  <compound_id>  (194) 
4896

>  <target_id>  (194) 
1

>  <reference_id>  (194) 
76

>  <inspiration_ids>  (194) 
[94, 76]

>  <energy_score>  (194) 
1019.4641635783568

>  <distance_score>  (194) 
11.450390007427107

>  <path>  (194) 
/opt/xchem-fragalysis-2/maxwin/BulkDock/SCRATCH/511018/C4896-P76/C4896-P76.minimised.mol

>  <scratch_subdir>  (194) 
/opt/xchem-fragalysis-2/maxwin/BulkDock/SCRATCH/511018/C4896-P76

>  <fragmenstein_runtime>  (194) 
32.41278028488159

>  <fragmenstein_outcome>  (194) 
too moved

>  <fragmenstein_mode>  (194) 
expansion

>  <fragmenstein_error>  (194) 


$$$$
C4897-P94
     RDKit          3D

 42 44  0  0  0  0  0  0  0  0999 V2000
    9.1763  -11.0713   24.0289 O   0  0  0  0  0  0  0  0  0  0  0  0
    8.1769  -10.3964   23.2746 C   0  0  0  0  0  0  0  0  0  0  0  0
    6.7031  -11.1023   23.3396 C   0  0  0  0  0  0  0  0  0  0  0  0
    5.3355  -11.0288   22.1684 N   0  0  0  0  0  0  0  0  0  0  0  0
    3.7540  -12.1196   22.4977 C   0  0  0  0  0  0  0  0  0  0  0  0
    2.5685  -13.0027   23.8169 C   0  0  0  0  0  0  0  0  0  0  0  0
    0.9673  -14.0505   23.6710 N   0  0  0  0  0  0  0  0  0  0  0  0
   -0.6178  -14.3906   24.3115 C   0  0  0  0  0  0  0  0  0  0  0  0
   -1.5862  -15.3109   23.9862 N   0  0  0  0  0  0  0  0  0  0  0  0
   -2.5323  -15.7193   24.9968 C   0  0  0  0  0  0  0  0  0  0  0  0
   -3.1808  -17.0784   25.3361 C   0  0  0  0  0  0  0  0  0  0  0  0
   -3.1134  -17.7077   26.6365 C   0  0  0  0  0  0  0  0  0  0  0  0
   -2.5421  -17.0243   27.7294 C   0  0  0  0  0  0  0  0  0  0  0  0
   -2.0945  -15.6518   27.5708 C   0  0  0  0  0  0  0  0  0  0  0  0
   -2.1593  -14.8812   26.0970 C   0  0  0  0  0  0  0  0  0  0  0  0
   -1.4659  -13.8505   25.4098 N   0  0  0  0  0  0  0  0  0  0  0  0
    6.1436  -11.7312   20.7177 C   0  0  0  0  0  0  0  0  0  0  0  0
    7.6728  -11.5716   20.4178 C   0  0  0  0  0  0  0  0  0  0  0  0
    8.6253  -12.6616   20.4063 C   0  0  0  0  0  0  0  0  0  0  0  0
    9.9334  -12.3037   20.1764 C   0  0  0  0  0  0  0  0  0  0  0  0
   10.0530  -10.6511   19.8998 S   0  0  0  0  0  0  0  0  0  0  0  0
    8.3412  -10.4951   19.8360 C   0  0  0  0  0  0  0  0  0  0  0  0
    9.4148  -11.8750   23.5346 H   0  0  0  0  0  0  0  0  0  0  0  0
    8.1493   -9.3898   23.7016 H   0  0  0  0  0  0  0  0  0  0  0  0
    8.6100  -10.3613   22.2957 H   0  0  0  0  0  0  0  0  0  0  0  0
    6.9265  -12.0980   23.6870 H   0  0  0  0  0  0  0  0  0  0  0  0
    6.2898  -10.6665   24.2286 H   0  0  0  0  0  0  0  0  0  0  0  0
    3.3120  -11.1832   22.6795 H   0  0  0  0  0  0  0  0  0  0  0  0
    3.6651  -12.6590   21.5555 H   0  0  0  0  0  0  0  0  0  0  0  0
    2.1114  -12.1723   24.3026 H   0  0  0  0  0  0  0  0  0  0  0  0
    3.2630  -13.6594   24.3250 H   0  0  0  0  0  0  0  0  0  0  0  0
    1.2937  -14.6797   22.8954 H   0  0  0  0  0  0  0  0  0  0  0  0
   -3.8523  -17.5404   24.6212 H   0  0  0  0  0  0  0  0  0  0  0  0
   -3.5679  -18.6831   26.7874 H   0  0  0  0  0  0  0  0  0  0  0  0
   -2.4803  -17.4924   28.7084 H   0  0  0  0  0  0  0  0  0  0  0  0
   -1.6206  -15.1621   28.3998 H   0  0  0  0  0  0  0  0  0  0  0  0
   -1.8538  -12.9296   25.3424 H   0  0  0  0  0  0  0  0  0  0  0  0
    5.8765  -12.7873   20.6567 H   0  0  0  0  0  0  0  0  0  0  0  0
    5.6876  -11.3490   19.8267 H   0  0  0  0  0  0  0  0  0  0  0  0
    8.3884  -13.6980   20.5743 H   0  0  0  0  0  0  0  0  0  0  0  0
   10.8062  -12.9436   20.1716 H   0  0  0  0  0  0  0  0  0  0  0  0
    7.9480   -9.5571   19.4847 H   0  0  0  0  0  0  0  0  0  0  0  0
  1  2  1  0
  2  3  1  0
  3  4  1  0
  4  5  1  0
  5  6  1  0
  6  7  1  0
  7  8  1  0
  8  9  2  0
  9 10  1  0
 10 11  2  0
 11 12  1  0
 12 13  2  0
 13 14  1  0
 14 15  2  0
 15 16  1  0
  4 17  1  0
 17 18  1  0
 18 19  1  0
 19 20  2  0
 20 21  1  0
 21 22  1  0
 16  8  1  0
 22 18  2  0
 15 10  1  0
  1 23  1  0
  2 24  1  0
  2 25  1  0
  3 26  1  0
  3 27  1  0
  5 28  1  0
  5 29  1  0
  6 30  1  0
  6 31  1  0
  7 32  1  0
 11 33  1  0
 12 34  1  0
 13 35  1  0
 14 36  1  0
 16 37  1  0
 17 38  1  0
 17 39  1  0
 19 40  1  0
 20 41  1  0
 22 42  1  0
M  END
>  <Energy>  (195) 
521.62159586682105

>  <compound_id>  (195) 
4897

>  <target_id>  (195) 
1

>  <reference_id>  (195) 
94

>  <inspiration_ids>  (195) 
[94, 76]

>  <energy_score>  (195) 
435.71742292549067

>  <distance_score>  (195) 
14.59185583209926

>  <path>  (195) 
/opt/xchem-fragalysis-2/maxwin/BulkDock/SCRATCH/511018/C4897-P94/C4897-P94.minimised.mol

>  <scratch_subdir>  (195) 
/opt/xchem-fragalysis-2/maxwin/BulkDock/SCRATCH/511018/C4897-P94

>  <fragmenstein_runtime>  (195) 
33.12191987037659

>  <fragmenstein_outcome>  (195) 
too moved

>  <fragmenstein_mode>  (195) 
expansion

>  <fragmenstein_error>  (195) 


$$$$
C4897-P76
     RDKit          3D

 42 44  0  0  0  0  0  0  0  0999 V2000
    5.7209   -9.6765   17.2850 O   0  0  0  0  0  0  0  0  0  0  0  0
    5.6475  -10.5249   16.1314 C   0  0  0  0  0  0  0  0  0  0  0  0
    4.7617  -11.8432   16.3177 C   0  0  0  0  0  0  0  0  0  0  0  0
    5.1847  -12.9714   17.2358 N   0  0  0  0  0  0  0  0  0  0  0  0
    4.3269  -14.3757   17.0892 C   0  0  0  0  0  0  0  0  0  0  0  0
    2.7770  -14.8388   17.7029 C   0  0  0  0  0  0  0  0  0  0  0  0
    2.3936  -16.3517   17.7568 N   0  0  0  0  0  0  0  0  0  0  0  0
    1.3169  -17.0021   18.4491 C   0  0  0  0  0  0  0  0  0  0  0  0
    1.3930  -18.1872   19.0623 N   0  0  0  0  0  0  0  0  0  0  0  0
    0.1423  -18.5164   19.5841 C   0  0  0  0  0  0  0  0  0  0  0  0
   -0.2899  -19.6322   20.3455 C   0  0  0  0  0  0  0  0  0  0  0  0
   -1.6425  -19.7575   20.7102 C   0  0  0  0  0  0  0  0  0  0  0  0
   -2.5594  -18.7865   20.3157 C   0  0  0  0  0  0  0  0  0  0  0  0
   -2.1446  -17.6633   19.5721 C   0  0  0  0  0  0  0  0  0  0  0  0
   -0.7800  -17.5487   19.2277 C   0  0  0  0  0  0  0  0  0  0  0  0
   -0.0252  -16.6165   18.5064 N   0  0  0  0  0  0  0  0  0  0  0  0
    6.6254  -13.2763   16.9183 C   0  0  0  0  0  0  0  0  0  0  0  0
    7.6740  -12.4359   17.6238 C   0  0  0  0  0  0  0  0  0  0  0  0
    7.5294  -11.7045   18.8498 C   0  0  0  0  0  0  0  0  0  0  0  0
    8.7216  -11.1913   19.3133 C   0  0  0  0  0  0  0  0  0  0  0  0
   10.0396  -11.6688   18.3350 S   0  0  0  0  0  0  0  0  0  0  0  0
    8.9916  -12.3720   17.1893 C   0  0  0  0  0  0  0  0  0  0  0  0
    5.1112  -10.1074   17.9313 H   0  0  0  0  0  0  0  0  0  0  0  0
    6.6575  -10.7628   15.7915 H   0  0  0  0  0  0  0  0  0  0  0  0
    5.1820   -9.9276   15.3397 H   0  0  0  0  0  0  0  0  0  0  0  0
    4.6346  -12.2695   15.3141 H   0  0  0  0  0  0  0  0  0  0  0  0
    3.7716  -11.5235   16.6533 H   0  0  0  0  0  0  0  0  0  0  0  0
    4.9718  -15.1197   17.5739 H   0  0  0  0  0  0  0  0  0  0  0  0
    4.3186  -14.6131   16.0182 H   0  0  0  0  0  0  0  0  0  0  0  0
    2.7401  -14.4914   18.7209 H   0  0  0  0  0  0  0  0  0  0  0  0
    2.0219  -14.3466   17.0894 H   0  0  0  0  0  0  0  0  0  0  0  0
    3.2488  -16.8861   17.9173 H   0  0  0  0  0  0  0  0  0  0  0  0
    0.4336  -20.3918   20.6224 H   0  0  0  0  0  0  0  0  0  0  0  0
   -1.9686  -20.6231   21.2796 H   0  0  0  0  0  0  0  0  0  0  0  0
   -3.6083  -18.8890   20.5827 H   0  0  0  0  0  0  0  0  0  0  0  0
   -2.8637  -16.9107   19.2762 H   0  0  0  0  0  0  0  0  0  0  0  0
   -0.3941  -15.7979   18.0533 H   0  0  0  0  0  0  0  0  0  0  0  0
    6.7883  -13.2719   15.8323 H   0  0  0  0  0  0  0  0  0  0  0  0
    6.8466  -14.3013   17.2451 H   0  0  0  0  0  0  0  0  0  0  0  0
    6.5891  -11.6150   19.3818 H   0  0  0  0  0  0  0  0  0  0  0  0
    8.8961  -10.6300   20.2190 H   0  0  0  0  0  0  0  0  0  0  0  0
    9.4088  -12.8130   16.2938 H   0  0  0  0  0  0  0  0  0  0  0  0
  1  2  1  0
  2  3  1  0
  3  4  1  0
  4  5  1  0
  5  6  1  0
  6  7  1  0
  7  8  1  0
  8  9  2  0
  9 10  1  0
 10 11  2  0
 11 12  1  0
 12 13  2  0
 13 14  1  0
 14 15  2  0
 15 16  1  0
  4 17  1  0
 17 18  1  0
 18 19  1  0
 19 20  2  0
 20 21  1  0
 21 22  1  0
 16  8  1  0
 22 18  2  0
 15 10  1  0
  1 23  1  0
  2 24  1  0
  2 25  1  0
  3 26  1  0
  3 27  1  0
  5 28  1  0
  5 29  1  0
  6 30  1  0
  6 31  1  0
  7 32  1  0
 11 33  1  0
 12 34  1  0
 13 35  1  0
 14 36  1  0
 16 37  1  0
 17 38  1  0
 17 39  1  0
 19 40  1  0
 20 41  1  0
 22 42  1  0
M  END
>  <Energy>  (196) 
90.779795497754648

>  <compound_id>  (196) 
4897

>  <target_id>  (196) 
1

>  <reference_id>  (196) 
76

>  <inspiration_ids>  (196) 
[94, 76]

>  <energy_score>  (196) 
4.875622556427913

>  <distance_score>  (196) 
15.79901615123125

>  <path>  (196) 
/opt/xchem-fragalysis-2/maxwin/BulkDock/SCRATCH/511018/C4897-P76/C4897-P76.minimised.mol

>  <scratch_subdir>  (196) 
/opt/xchem-fragalysis-2/maxwin/BulkDock/SCRATCH/511018/C4897-P76

>  <fragmenstein_runtime>  (196) 
12.336189985275269

>  <fragmenstein_outcome>  (196) 
too moved

>  <fragmenstein_mode>  (196) 
expansion

>  <fragmenstein_error>  (196) 


$$$$
C4898-P94
     RDKit          3D

 39 41  0  0  0  0  0  0  0  0999 V2000
   -7.6376  -21.9743   22.0300 C   0  0  0  0  0  0  0  0  0  0  0  0
   -8.0263  -20.8669   21.1849 N   0  0  0  0  0  0  0  0  0  0  0  0
   -9.2534  -20.2670   21.1666 C   0  0  0  0  0  0  0  0  0  0  0  0
   -9.3261  -19.3398   20.2317 N   0  0  0  0  0  0  0  0  0  0  0  0
   -8.0823  -19.3189   19.6161 C   0  0  0  0  0  0  0  0  0  0  0  0
   -7.5718  -18.5075   18.5358 C   0  0  0  0  0  0  0  0  0  0  0  0
   -6.2079  -18.5648   18.1541 C   0  0  0  0  0  0  0  0  0  0  0  0
   -5.5313  -17.5711   17.3263 N   0  0  0  0  0  0  0  0  0  0  0  0
   -4.2161  -16.9406   17.4699 C   0  0  0  0  0  0  0  0  0  0  0  0
   -3.3322  -17.1470   18.2657 O   0  0  0  0  0  0  0  0  0  0  0  0
   -3.7264  -15.5782   16.3299 C   0  0  0  0  0  0  0  0  0  0  0  0
   -4.3295  -15.2559   15.3372 O   0  0  0  0  0  0  0  0  0  0  0  0
   -2.3006  -15.0454   16.9147 N   0  0  0  0  0  0  0  0  0  0  0  0
   -1.2964  -14.0894   16.3311 C   0  0  0  0  0  0  0  0  0  0  0  0
    0.7892  -13.8922   16.5758 C   0  0  0  0  0  0  0  0  0  0  0  0
    1.8010  -12.7724   15.1712 C   0  0  0  0  0  0  0  0  0  0  0  0
    1.3151  -12.5406   13.5486 C   0  0  0  0  0  0  0  0  0  0  0  0
    2.2423  -11.9694   12.6925 C   0  0  0  0  0  0  0  0  0  0  0  0
    3.7231  -11.4621   13.3728 S   0  0  0  0  0  0  0  0  0  0  0  0
    3.2873  -11.9497   14.9903 C   0  0  0  0  0  0  0  0  0  0  0  0
   -5.4245  -19.5169   18.8327 C   0  0  0  0  0  0  0  0  0  0  0  0
   -5.9258  -20.4071   19.8179 C   0  0  0  0  0  0  0  0  0  0  0  0
   -7.2508  -20.2567   20.2228 C   0  0  0  0  0  0  0  0  0  0  0  0
   -7.1928  -22.7459   21.3952 H   0  0  0  0  0  0  0  0  0  0  0  0
   -8.5190  -22.3905   22.5222 H   0  0  0  0  0  0  0  0  0  0  0  0
   -6.8993  -21.6182   22.7505 H   0  0  0  0  0  0  0  0  0  0  0  0
  -10.0560  -20.5484   21.8347 H   0  0  0  0  0  0  0  0  0  0  0  0
   -8.2375  -17.7680   18.1052 H   0  0  0  0  0  0  0  0  0  0  0  0
   -6.0509  -17.0900   16.5979 H   0  0  0  0  0  0  0  0  0  0  0  0
   -2.1181  -15.4762   17.8138 H   0  0  0  0  0  0  0  0  0  0  0  0
   -1.5300  -14.2695   15.2805 H   0  0  0  0  0  0  0  0  0  0  0  0
   -1.6853  -13.2587   16.9324 H   0  0  0  0  0  0  0  0  0  0  0  0
    0.5327  -13.4596   17.5365 H   0  0  0  0  0  0  0  0  0  0  0  0
    1.5356  -14.4961   17.0766 H   0  0  0  0  0  0  0  0  0  0  0  0
    0.3594  -12.9448   13.2228 H   0  0  0  0  0  0  0  0  0  0  0  0
    2.1021  -11.8169   11.6313 H   0  0  0  0  0  0  0  0  0  0  0  0
    3.9203  -11.6341   15.8248 H   0  0  0  0  0  0  0  0  0  0  0  0
   -4.3603  -19.5885   18.6019 H   0  0  0  0  0  0  0  0  0  0  0  0
   -5.2614  -21.1245   20.2896 H   0  0  0  0  0  0  0  0  0  0  0  0
  1  2  1  0
  2  3  1  0
  3  4  2  0
  4  5  1  0
  5  6  2  0
  6  7  1  0
  7  8  1  0
  8  9  1  0
  9 10  2  0
  9 11  1  0
 11 12  2  0
 11 13  1  0
 13 14  1  0
 14 15  1  0
 15 16  1  0
 16 17  1  0
 17 18  2  0
 18 19  1  0
 19 20  1  0
  7 21  2  0
 21 22  1  0
 22 23  2  0
 23  2  1  0
 23  5  1  0
 20 16  2  0
  1 24  1  0
  1 25  1  0
  1 26  1  0
  3 27  1  0
  6 28  1  0
  8 29  1  0
 13 30  1  0
 14 31  1  0
 14 32  1  0
 15 33  1  0
 15 34  1  0
 17 35  1  0
 18 36  1  0
 20 37  1  0
 21 38  1  0
 22 39  1  0
M  END
>  <Energy>  (197) 
367.08124367188697

>  <compound_id>  (197) 
4898

>  <target_id>  (197) 
1

>  <reference_id>  (197) 
94

>  <inspiration_ids>  (197) 
[94, 76]

>  <energy_score>  (197) 
260.3115091151949

>  <distance_score>  (197) 
13.812771378799809

>  <path>  (197) 
/opt/xchem-fragalysis-2/maxwin/BulkDock/SCRATCH/511018/C4898-P94/C4898-P94.minimised.mol

>  <scratch_subdir>  (197) 
/opt/xchem-fragalysis-2/maxwin/BulkDock/SCRATCH/511018/C4898-P94

>  <fragmenstein_runtime>  (197) 
36.54049611091614

>  <fragmenstein_outcome>  (197) 
too moved

>  <fragmenstein_mode>  (197) 
expansion

>  <fragmenstein_error>  (197) 


$$$$
C4898-P76
     RDKit          3D

 39 41  0  0  0  0  0  0  0  0999 V2000
   -9.4183  -21.3741   21.7368 C   0  0  0  0  0  0  0  0  0  0  0  0
   -8.0167  -21.4717   21.3926 N   0  0  0  0  0  0  0  0  0  0  0  0
   -7.2398  -22.5731   21.6164 C   0  0  0  0  0  0  0  0  0  0  0  0
   -6.0554  -22.4431   21.0601 N   0  0  0  0  0  0  0  0  0  0  0  0
   -6.0166  -21.1686   20.5144 C   0  0  0  0  0  0  0  0  0  0  0  0
   -4.9388  -20.4437   19.8736 C   0  0  0  0  0  0  0  0  0  0  0  0
   -5.0532  -19.0896   19.5096 C   0  0  0  0  0  0  0  0  0  0  0  0
   -3.9002  -18.1701   19.3837 N   0  0  0  0  0  0  0  0  0  0  0  0
   -3.7053  -17.0033   18.5571 C   0  0  0  0  0  0  0  0  0  0  0  0
   -4.3976  -16.5327   17.7039 O   0  0  0  0  0  0  0  0  0  0  0  0
   -2.1049  -16.0625   19.0317 C   0  0  0  0  0  0  0  0  0  0  0  0
   -1.5040  -16.6476   19.9212 O   0  0  0  0  0  0  0  0  0  0  0  0
   -1.6246  -14.6545   18.1062 N   0  0  0  0  0  0  0  0  0  0  0  0
    0.0972  -13.6586   18.0733 C   0  0  0  0  0  0  0  0  0  0  0  0
    2.0721  -14.1730   18.2621 C   0  0  0  0  0  0  0  0  0  0  0  0
    3.8655  -13.4294   18.3604 C   0  0  0  0  0  0  0  0  0  0  0  0
    4.4785  -12.1957   17.6610 C   0  0  0  0  0  0  0  0  0  0  0  0
    5.8517  -12.0311   17.6856 C   0  0  0  0  0  0  0  0  0  0  0  0
    6.5769  -13.3847   18.3744 S   0  0  0  0  0  0  0  0  0  0  0  0
    5.0552  -14.1970   18.4473 C   0  0  0  0  0  0  0  0  0  0  0  0
   -6.3451  -18.5562   19.6893 C   0  0  0  0  0  0  0  0  0  0  0  0
   -7.4530  -19.2396   20.2780 C   0  0  0  0  0  0  0  0  0  0  0  0
   -7.2448  -20.5423   20.7251 C   0  0  0  0  0  0  0  0  0  0  0  0
   -9.6518  -22.0811   22.5356 H   0  0  0  0  0  0  0  0  0  0  0  0
   -9.6478  -20.3498   22.0380 H   0  0  0  0  0  0  0  0  0  0  0  0
   -9.9941  -21.6307   20.8431 H   0  0  0  0  0  0  0  0  0  0  0  0
   -7.5868  -23.4472   22.1519 H   0  0  0  0  0  0  0  0  0  0  0  0
   -3.9763  -20.9244   19.7595 H   0  0  0  0  0  0  0  0  0  0  0  0
   -3.0671  -18.3211   19.9419 H   0  0  0  0  0  0  0  0  0  0  0  0
   -2.3125  -14.4648   17.3793 H   0  0  0  0  0  0  0  0  0  0  0  0
   -0.4122  -12.6978   18.0944 H   0  0  0  0  0  0  0  0  0  0  0  0
    0.3324  -13.8012   17.0536 H   0  0  0  0  0  0  0  0  0  0  0  0
    2.2630  -14.7864   19.1437 H   0  0  0  0  0  0  0  0  0  0  0  0
    2.2755  -14.9029   17.4936 H   0  0  0  0  0  0  0  0  0  0  0  0
    3.8574  -11.4622   17.1525 H   0  0  0  0  0  0  0  0  0  0  0  0
    6.4204  -11.1922   17.3114 H   0  0  0  0  0  0  0  0  0  0  0  0
    5.1309  -15.2610   18.5887 H   0  0  0  0  0  0  0  0  0  0  0  0
   -6.5128  -17.5141   19.4833 H   0  0  0  0  0  0  0  0  0  0  0  0
   -8.3942  -18.7228   20.4267 H   0  0  0  0  0  0  0  0  0  0  0  0
  1  2  1  0
  2  3  1  0
  3  4  2  0
  4  5  1  0
  5  6  2  0
  6  7  1  0
  7  8  1  0
  8  9  1  0
  9 10  2  0
  9 11  1  0
 11 12  2  0
 11 13  1  0
 13 14  1  0
 14 15  1  0
 15 16  1  0
 16 17  1  0
 17 18  2  0
 18 19  1  0
 19 20  1  0
  7 21  2  0
 21 22  1  0
 22 23  2  0
 23  2  1  0
 23  5  1  0
 20 16  2  0
  1 24  1  0
  1 25  1  0
  1 26  1  0
  3 27  1  0
  6 28  1  0
  8 29  1  0
 13 30  1  0
 14 31  1  0
 14 32  1  0
 15 33  1  0
 15 34  1  0
 17 35  1  0
 18 36  1  0
 20 37  1  0
 21 38  1  0
 22 39  1  0
M  END
>  <Energy>  (198) 
399.17249603318277

>  <compound_id>  (198) 
4898

>  <target_id>  (198) 
1

>  <reference_id>  (198) 
76

>  <inspiration_ids>  (198) 
[94, 76]

>  <energy_score>  (198) 
292.4027614764924

>  <distance_score>  (198) 
13.281666945285098

>  <path>  (198) 
/opt/xchem-fragalysis-2/maxwin/BulkDock/SCRATCH/511018/C4898-P76/C4898-P76.minimised.mol

>  <scratch_subdir>  (198) 
/opt/xchem-fragalysis-2/maxwin/BulkDock/SCRATCH/511018/C4898-P76

>  <fragmenstein_runtime>  (198) 
21.781263828277588

>  <fragmenstein_outcome>  (198) 
too moved

>  <fragmenstein_mode>  (198) 
expansion

>  <fragmenstein_error>  (198) 


$$$$
C4899-P94
     RDKit          3D

 45 48  0  0  0  0  0  0  0  0999 V2000
   -5.0460  -21.2898   24.6511 C   0  0  0  0  0  0  0  0  0  0  0  0
   -4.8487  -20.0412   25.5099 C   0  0  0  0  0  0  0  0  0  0  0  0
   -5.0874  -19.0655   27.0485 C   0  0  0  0  0  0  0  0  0  0  0  0
   -3.9453  -17.3775   27.2238 N   0  0  0  0  0  0  0  0  0  0  0  0
   -2.3172  -16.6457   26.7258 C   0  0  0  0  0  0  0  0  0  0  0  0
   -1.8626  -15.5639   24.8351 C   0  0  0  0  0  0  0  0  0  0  0  0
   -0.7563  -14.2259   24.0566 N   0  0  0  0  0  0  0  0  0  0  0  0
   -0.3261  -12.6937   22.6848 C   0  0  0  0  0  0  0  0  0  0  0  0
   -0.6957  -10.7815   21.9135 C   0  0  0  0  0  0  0  0  0  0  0  0
    0.0942   -9.3741   21.2530 C   0  0  0  0  0  0  0  0  0  0  0  0
   -0.5579   -8.6676   19.9213 C   0  0  0  0  0  0  0  0  0  0  0  0
    0.2162   -7.9289   18.8694 C   0  0  0  0  0  0  0  0  0  0  0  0
   -0.4868   -7.6429   17.7219 C   0  0  0  0  0  0  0  0  0  0  0  0
   -2.0603   -8.2913   17.7932 S   0  0  0  0  0  0  0  0  0  0  0  0
   -1.8157   -8.9310   19.3829 C   0  0  0  0  0  0  0  0  0  0  0  0
   -2.3156  -14.7546   25.1628 C   0  0  0  0  0  0  0  0  0  0  0  0
   -3.0913  -16.6822   25.5955 C   0  0  0  0  0  0  0  0  0  0  0  0
   -6.0332  -20.3713   26.9577 C   0  0  0  0  0  0  0  0  0  0  0  0
   -7.2177  -20.7110   27.5134 N   0  0  0  0  0  0  0  0  0  0  0  0
   -7.4049  -22.0444   27.5191 C   0  0  0  0  0  0  0  0  0  0  0  0
   -6.2154  -22.5845   27.4229 N   0  0  0  0  0  0  0  0  0  0  0  0
   -5.7890  -21.8089   26.4556 C   0  0  0  0  0  0  0  0  0  0  0  0
   -5.4927  -22.3420   25.2562 C   0  0  0  0  0  0  0  0  0  0  0  0
   -4.4950  -21.5605   23.7508 H   0  0  0  0  0  0  0  0  0  0  0  0
   -3.9728  -19.7337   24.9323 H   0  0  0  0  0  0  0  0  0  0  0  0
   -2.1297  -15.8753   27.5190 H   0  0  0  0  0  0  0  0  0  0  0  0
   -1.6426  -17.5442   26.9190 H   0  0  0  0  0  0  0  0  0  0  0  0
   -2.4421  -15.9663   23.9818 H   0  0  0  0  0  0  0  0  0  0  0  0
   -1.0338  -15.9983   24.5290 H   0  0  0  0  0  0  0  0  0  0  0  0
    0.5932  -11.9693   22.9213 H   0  0  0  0  0  0  0  0  0  0  0  0
   -1.1926  -12.4250   21.5159 H   0  0  0  0  0  0  0  0  0  0  0  0
   -1.5603  -10.8655   21.2180 H   0  0  0  0  0  0  0  0  0  0  0  0
   -1.0914  -10.1038   22.6432 H   0  0  0  0  0  0  0  0  0  0  0  0
    0.0192   -8.5816   22.0134 H   0  0  0  0  0  0  0  0  0  0  0  0
    1.1460   -9.5094   21.0737 H   0  0  0  0  0  0  0  0  0  0  0  0
    1.2249   -7.5903   18.9599 H   0  0  0  0  0  0  0  0  0  0  0  0
   -0.1446   -7.1074   16.8486 H   0  0  0  0  0  0  0  0  0  0  0  0
   -2.6025   -9.5210   19.8218 H   0  0  0  0  0  0  0  0  0  0  0  0
   -3.2166  -14.7996   24.0022 H   0  0  0  0  0  0  0  0  0  0  0  0
   -2.4738  -13.9370   25.8792 H   0  0  0  0  0  0  0  0  0  0  0  0
   -2.4878  -17.5475   25.1642 H   0  0  0  0  0  0  0  0  0  0  0  0
   -3.9060  -16.1194   25.0570 H   0  0  0  0  0  0  0  0  0  0  0  0
   -8.2522  -22.6189   27.8690 H   0  0  0  0  0  0  0  0  0  0  0  0
   -5.9457  -23.5170   27.6049 H   0  0  0  0  0  0  0  0  0  0  0  0
   -5.5055  -23.3626   24.9281 H   0  0  0  0  0  0  0  0  0  0  0  0
  1  2  2  0
  2  3  1  0
  3  4  1  0
  4  5  1  0
  5  6  1  0
  6  7  1  0
  7  8  1  0
  8  9  1  0
  9 10  1  0
 10 11  1  0
 11 12  1  0
 12 13  2  0
 13 14  1  0
 14 15  1  0
  7 16  1  0
 16 17  1  0
  3 18  2  0
 18 19  1  0
 19 20  2  0
 20 21  1  0
 21 22  1  0
 22 23  2  0
 23  1  1  0
 17  4  1  0
 22 18  1  0
 15 11  2  0
  1 24  1  0
  2 25  1  0
  5 26  1  0
  5 27  1  0
  6 28  1  0
  6 29  1  0
  8 30  1  0
  8 31  1  0
  9 32  1  0
  9 33  1  0
 10 34  1  0
 10 35  1  0
 12 36  1  0
 13 37  1  0
 15 38  1  0
 16 39  1  0
 16 40  1  0
 17 41  1  0
 17 42  1  0
 20 43  1  0
 21 44  1  0
 23 45  1  0
M  END
>  <Energy>  (199) 
2137.1550560616961

>  <compound_id>  (199) 
4899

>  <target_id>  (199) 
1

>  <reference_id>  (199) 
94

>  <inspiration_ids>  (199) 
[94, 76]

>  <energy_score>  (199) 
1962.5134809991675

>  <distance_score>  (199) 
12.344656632930125

>  <path>  (199) 
/opt/xchem-fragalysis-2/maxwin/BulkDock/SCRATCH/511018/C4899-P94/C4899-P94.minimised.mol

>  <scratch_subdir>  (199) 
/opt/xchem-fragalysis-2/maxwin/BulkDock/SCRATCH/511018/C4899-P94

>  <fragmenstein_runtime>  (199) 
29.49313473701477

>  <fragmenstein_outcome>  (199) 
too moved

>  <fragmenstein_mode>  (199) 
expansion

>  <fragmenstein_error>  (199) 


$$$$
C4899-P76
     RDKit          3D

 45 48  0  0  0  0  0  0  0  0999 V2000
   -6.4996  -21.6854   20.1618 C   0  0  0  0  0  0  0  0  0  0  0  0
   -5.3517  -21.2699   19.4505 C   0  0  0  0  0  0  0  0  0  0  0  0
   -4.0106  -21.5817   19.8187 C   0  0  0  0  0  0  0  0  0  0  0  0
   -2.8944  -21.0488   19.0495 N   0  0  0  0  0  0  0  0  0  0  0  0
   -2.1035  -22.0180   18.2436 C   0  0  0  0  0  0  0  0  0  0  0  0
   -0.7556  -21.3847   17.6325 C   0  0  0  0  0  0  0  0  0  0  0  0
   -0.7455  -20.0175   16.9833 N   0  0  0  0  0  0  0  0  0  0  0  0
    0.6889  -19.4303   16.9522 C   0  0  0  0  0  0  0  0  0  0  0  0
    1.2354  -18.4160   15.7941 C   0  0  0  0  0  0  0  0  0  0  0  0
    2.7196  -17.7921   16.0627 C   0  0  0  0  0  0  0  0  0  0  0  0
    3.1200  -16.3039   15.8178 C   0  0  0  0  0  0  0  0  0  0  0  0
    3.0167  -15.5565   14.5908 C   0  0  0  0  0  0  0  0  0  0  0  0
    3.5843  -14.2947   14.6538 C   0  0  0  0  0  0  0  0  0  0  0  0
    4.2610  -13.9671   16.1849 S   0  0  0  0  0  0  0  0  0  0  0  0
    3.7925  -15.5166   16.7552 C   0  0  0  0  0  0  0  0  0  0  0  0
   -1.6938  -19.1761   17.7816 C   0  0  0  0  0  0  0  0  0  0  0  0
   -3.0718  -19.8045   18.2565 C   0  0  0  0  0  0  0  0  0  0  0  0
   -3.9522  -22.3743   21.0437 C   0  0  0  0  0  0  0  0  0  0  0  0
   -2.8599  -22.8439   21.7706 N   0  0  0  0  0  0  0  0  0  0  0  0
   -3.3398  -23.4440   22.8381 C   0  0  0  0  0  0  0  0  0  0  0  0
   -4.6986  -23.4300   22.8565 N   0  0  0  0  0  0  0  0  0  0  0  0
   -5.1226  -22.7588   21.7335 C   0  0  0  0  0  0  0  0  0  0  0  0
   -6.4116  -22.4453   21.3215 C   0  0  0  0  0  0  0  0  0  0  0  0
   -7.4788  -21.3848   19.7946 H   0  0  0  0  0  0  0  0  0  0  0  0
   -5.5283  -20.6730   18.5590 H   0  0  0  0  0  0  0  0  0  0  0  0
   -2.7205  -22.3770   17.4101 H   0  0  0  0  0  0  0  0  0  0  0  0
   -1.8254  -22.8845   18.8549 H   0  0  0  0  0  0  0  0  0  0  0  0
   -0.0098  -21.3920   18.4280 H   0  0  0  0  0  0  0  0  0  0  0  0
   -0.3869  -22.0963   16.8828 H   0  0  0  0  0  0  0  0  0  0  0  0
    1.3694  -20.2896   16.8750 H   0  0  0  0  0  0  0  0  0  0  0  0
    0.8962  -18.9776   17.9290 H   0  0  0  0  0  0  0  0  0  0  0  0
    1.3004  -19.0056   14.8698 H   0  0  0  0  0  0  0  0  0  0  0  0
    0.5014  -17.6373   15.5770 H   0  0  0  0  0  0  0  0  0  0  0  0
    2.9660  -18.0167   17.1081 H   0  0  0  0  0  0  0  0  0  0  0  0
    3.4175  -18.3939   15.4638 H   0  0  0  0  0  0  0  0  0  0  0  0
    2.5613  -15.9444   13.6873 H   0  0  0  0  0  0  0  0  0  0  0  0
    3.6386  -13.5554   13.8667 H   0  0  0  0  0  0  0  0  0  0  0  0
    4.0586  -15.7867   17.7684 H   0  0  0  0  0  0  0  0  0  0  0  0
   -1.9608  -18.3203   17.1569 H   0  0  0  0  0  0  0  0  0  0  0  0
   -1.1918  -18.7960   18.6774 H   0  0  0  0  0  0  0  0  0  0  0  0
   -3.5883  -19.0488   18.8605 H   0  0  0  0  0  0  0  0  0  0  0  0
   -3.6803  -20.0091   17.3666 H   0  0  0  0  0  0  0  0  0  0  0  0
   -2.7492  -23.9081   23.6149 H   0  0  0  0  0  0  0  0  0  0  0  0
   -5.2924  -23.8299   23.5691 H   0  0  0  0  0  0  0  0  0  0  0  0
   -7.2924  -22.7417   21.8775 H   0  0  0  0  0  0  0  0  0  0  0  0
  1  2  2  0
  2  3  1  0
  3  4  1  0
  4  5  1  0
  5  6  1  0
  6  7  1  0
  7  8  1  0
  8  9  1  0
  9 10  1  0
 10 11  1  0
 11 12  1  0
 12 13  2  0
 13 14  1  0
 14 15  1  0
  7 16  1  0
 16 17  1  0
  3 18  2  0
 18 19  1  0
 19 20  2  0
 20 21  1  0
 21 22  1  0
 22 23  2  0
 23  1  1  0
 17  4  1  0
 22 18  1  0
 15 11  2  0
  1 24  1  0
  2 25  1  0
  5 26  1  0
  5 27  1  0
  6 28  1  0
  6 29  1  0
  8 30  1  0
  8 31  1  0
  9 32  1  0
  9 33  1  0
 10 34  1  0
 10 35  1  0
 12 36  1  0
 13 37  1  0
 15 38  1  0
 16 39  1  0
 16 40  1  0
 17 41  1  0
 17 42  1  0
 20 43  1  0
 21 44  1  0
 23 45  1  0
M  END
>  <Energy>  (200) 
161.36861870742155

>  <compound_id>  (200) 
4899

>  <target_id>  (200) 
1

>  <reference_id>  (200) 
76

>  <inspiration_ids>  (200) 
[94, 76]

>  <energy_score>  (200) 
-13.272956355072893

>  <distance_score>  (200) 
14.29217739396475

>  <path>  (200) 
/opt/xchem-fragalysis-2/maxwin/BulkDock/SCRATCH/511018/C4899-P76/C4899-P76.minimised.mol

>  <scratch_subdir>  (200) 
/opt/xchem-fragalysis-2/maxwin/BulkDock/SCRATCH/511018/C4899-P76

>  <fragmenstein_runtime>  (200) 
25.112591981887817

>  <fragmenstein_outcome>  (200) 
too moved

>  <fragmenstein_mode>  (200) 
expansion

>  <fragmenstein_error>  (200) 


$$$$
C4900-P94
     RDKit          3D

 38 41  0  0  0  0  0  0  0  0999 V2000
    4.0780  -14.7476   26.3767 O   0  0  0  0  0  0  0  0  0  0  0  0
    4.3521  -14.3818   25.2652 C   0  0  0  0  0  0  0  0  0  0  0  0
    6.0552  -14.7440   24.9146 C   0  0  0  0  0  0  0  0  0  0  0  0
    6.8628  -15.7200   24.2605 C   0  0  0  0  0  0  0  0  0  0  0  0
    8.1948  -15.3816   24.0746 C   0  0  0  0  0  0  0  0  0  0  0  0
    8.5839  -13.8696   24.7438 S   0  0  0  0  0  0  0  0  0  0  0  0
    6.9855  -13.7072   25.3184 C   0  0  0  0  0  0  0  0  0  0  0  0
    3.3040  -13.5079   24.2426 N   0  0  0  0  0  0  0  0  0  0  0  0
    2.4190  -14.3738   23.3375 C   0  0  0  0  0  0  0  0  0  0  0  0
    0.3017  -14.2239   23.2585 C   0  0  0  0  0  0  0  0  0  0  0  0
   -0.8421  -14.7870   24.5871 N   0  0  0  0  0  0  0  0  0  0  0  0
   -2.1423  -16.2307   24.8746 C   0  0  0  0  0  0  0  0  0  0  0  0
   -2.2483  -17.5655   26.0410 C   0  0  0  0  0  0  0  0  0  0  0  0
   -2.8207  -19.3972   25.9645 C   0  0  0  0  0  0  0  0  0  0  0  0
   -4.1951  -20.0966   25.5827 C   0  0  0  0  0  0  0  0  0  0  0  0
   -2.5628  -19.5928   25.3009 C   0  0  0  0  0  0  0  0  0  0  0  0
   -2.6015  -20.6987   23.8554 N   0  0  0  0  0  0  0  0  0  0  0  0
   -1.4904  -20.4838   23.3009 C   0  0  0  0  0  0  0  0  0  0  0  0
   -1.2614  -19.1829   23.5679 N   0  0  0  0  0  0  0  0  0  0  0  0
   -1.9527  -18.0300   25.0469 C   0  0  0  0  0  0  0  0  0  0  0  0
    0.7946  -13.8703   25.4034 C   0  0  0  0  0  0  0  0  0  0  0  0
    1.9921  -12.9497   24.4870 C   0  0  0  0  0  0  0  0  0  0  0  0
    6.4991  -16.6456   23.8950 H   0  0  0  0  0  0  0  0  0  0  0  0
    8.9581  -15.9668   23.5799 H   0  0  0  0  0  0  0  0  0  0  0  0
    6.7206  -12.8133   25.8688 H   0  0  0  0  0  0  0  0  0  0  0  0
    2.9852  -14.2403   22.4018 H   0  0  0  0  0  0  0  0  0  0  0  0
    2.9092  -15.3289   23.4548 H   0  0  0  0  0  0  0  0  0  0  0  0
   -0.1818  -13.3263   22.9408 H   0  0  0  0  0  0  0  0  0  0  0  0
   -0.0463  -14.7121   22.3258 H   0  0  0  0  0  0  0  0  0  0  0  0
   -2.0092  -17.3238   27.1108 H   0  0  0  0  0  0  0  0  0  0  0  0
   -3.9834  -19.4028   24.8208 H   0  0  0  0  0  0  0  0  0  0  0  0
   -4.5942  -21.1110   25.5730 H   0  0  0  0  0  0  0  0  0  0  0  0
   -3.1656  -21.5365   23.8778 H   0  0  0  0  0  0  0  0  0  0  0  0
   -0.8122  -21.3095   23.1191 H   0  0  0  0  0  0  0  0  0  0  0  0
    0.3363  -13.2067   26.0946 H   0  0  0  0  0  0  0  0  0  0  0  0
    1.3149  -14.2355   26.3120 H   0  0  0  0  0  0  0  0  0  0  0  0
    1.8118  -12.0931   25.1086 H   0  0  0  0  0  0  0  0  0  0  0  0
    1.8893  -12.2119   23.6753 H   0  0  0  0  0  0  0  0  0  0  0  0
  1  2  2  0
  2  3  1  0
  3  4  1  0
  4  5  2  0
  5  6  1  0
  6  7  1  0
  2  8  1  0
  8  9  1  0
  9 10  1  0
 10 11  1  0
 11 12  1  0
 12 13  2  0
 13 14  1  0
 14 15  2  0
 15 16  1  0
 16 17  1  0
 17 18  1  0
 18 19  2  0
 19 20  1  0
 11 21  1  0
 21 22  1  0
  7  3  2  0
 22  8  1  0
 20 12  1  0
 20 16  2  0
  4 23  1  0
  5 24  1  0
  7 25  1  0
  9 26  1  0
  9 27  1  0
 10 28  1  0
 10 29  1  0
 13 30  1  0
 14 31  1  0
 15 32  1  0
 17 33  1  0
 18 34  1  0
 21 35  1  0
 21 36  1  0
 22 37  1  0
 22 38  1  0
M  END
>  <Energy>  (201) 
1946.1600141191368

>  <compound_id>  (201) 
4900

>  <target_id>  (201) 
1

>  <reference_id>  (201) 
94

>  <inspiration_ids>  (201) 
[94, 76]

>  <energy_score>  (201) 
1806.7377369876285

>  <distance_score>  (201) 
14.431017578335313

>  <path>  (201) 
/opt/xchem-fragalysis-2/maxwin/BulkDock/SCRATCH/511018/C4900-P94/C4900-P94.minimised.mol

>  <scratch_subdir>  (201) 
/opt/xchem-fragalysis-2/maxwin/BulkDock/SCRATCH/511018/C4900-P94

>  <fragmenstein_runtime>  (201) 
19.7811439037323

>  <fragmenstein_outcome>  (201) 
too moved

>  <fragmenstein_mode>  (201) 
expansion

>  <fragmenstein_error>  (201) 


$$$$
C4900-P76
     RDKit          3D

 38 41  0  0  0  0  0  0  0  0999 V2000
    0.0779  -10.8330   20.8412 O   0  0  0  0  0  0  0  0  0  0  0  0
    0.3055  -10.5193   21.8906 C   0  0  0  0  0  0  0  0  0  0  0  0
    0.4445   -8.8619   21.9466 C   0  0  0  0  0  0  0  0  0  0  0  0
    1.5577   -8.1826   21.2345 C   0  0  0  0  0  0  0  0  0  0  0  0
    1.5522   -6.8135   21.3293 C   0  0  0  0  0  0  0  0  0  0  0  0
    0.1644   -6.2820   22.1564 S   0  0  0  0  0  0  0  0  0  0  0  0
   -0.4526   -7.8877   22.3301 C   0  0  0  0  0  0  0  0  0  0  0  0
    0.3635  -11.4994   23.2012 N   0  0  0  0  0  0  0  0  0  0  0  0
    1.8258  -12.4551   24.0186 C   0  0  0  0  0  0  0  0  0  0  0  0
    1.1990  -12.7431   25.9407 C   0  0  0  0  0  0  0  0  0  0  0  0
   -0.3716  -12.9690   26.4394 N   0  0  0  0  0  0  0  0  0  0  0  0
   -0.9117  -12.9494   27.7405 C   0  0  0  0  0  0  0  0  0  0  0  0
   -1.9696  -12.0330   27.9810 C   0  0  0  0  0  0  0  0  0  0  0  0
   -2.6536  -11.8821   29.2035 C   0  0  0  0  0  0  0  0  0  0  0  0
   -2.3682  -12.7043   30.2831 C   0  0  0  0  0  0  0  0  0  0  0  0
   -1.3032  -13.5796   30.1003 C   0  0  0  0  0  0  0  0  0  0  0  0
   -0.7199  -14.4470   30.9890 N   0  0  0  0  0  0  0  0  0  0  0  0
    0.3712  -14.9891   30.3845 C   0  0  0  0  0  0  0  0  0  0  0  0
    0.4738  -14.5976   29.1360 N   0  0  0  0  0  0  0  0  0  0  0  0
   -0.5571  -13.6993   28.9125 C   0  0  0  0  0  0  0  0  0  0  0  0
   -1.2373  -13.6512   25.1420 C   0  0  0  0  0  0  0  0  0  0  0  0
   -0.1306  -13.5446   23.3942 C   0  0  0  0  0  0  0  0  0  0  0  0
    2.3287   -8.7247   20.7087 H   0  0  0  0  0  0  0  0  0  0  0  0
    2.2741   -6.1159   20.9300 H   0  0  0  0  0  0  0  0  0  0  0  0
   -1.4482   -8.0149   22.7225 H   0  0  0  0  0  0  0  0  0  0  0  0
    2.5001  -11.6725   23.9216 H   0  0  0  0  0  0  0  0  0  0  0  0
    2.5012  -13.2818   23.7161 H   0  0  0  0  0  0  0  0  0  0  0  0
    1.7510  -13.4807   26.5139 H   0  0  0  0  0  0  0  0  0  0  0  0
    1.2005  -11.7628   26.4144 H   0  0  0  0  0  0  0  0  0  0  0  0
   -2.2873  -11.4023   27.1619 H   0  0  0  0  0  0  0  0  0  0  0  0
   -3.4513  -11.1472   29.2797 H   0  0  0  0  0  0  0  0  0  0  0  0
   -2.9069  -12.6267   31.2199 H   0  0  0  0  0  0  0  0  0  0  0  0
   -1.0107  -14.6043   31.9424 H   0  0  0  0  0  0  0  0  0  0  0  0
    1.0404  -15.6761   30.8848 H   0  0  0  0  0  0  0  0  0  0  0  0
   -1.7476  -14.6271   25.2296 H   0  0  0  0  0  0  0  0  0  0  0  0
   -2.0995  -12.9721   25.3482 H   0  0  0  0  0  0  0  0  0  0  0  0
    0.6712  -14.0995   23.9035 H   0  0  0  0  0  0  0  0  0  0  0  0
   -0.3616  -14.1869   22.5610 H   0  0  0  0  0  0  0  0  0  0  0  0
  1  2  2  0
  2  3  1  0
  3  4  1  0
  4  5  2  0
  5  6  1  0
  6  7  1  0
  2  8  1  0
  8  9  1  0
  9 10  1  0
 10 11  1  0
 11 12  1  0
 12 13  2  0
 13 14  1  0
 14 15  2  0
 15 16  1  0
 16 17  1  0
 17 18  1  0
 18 19  2  0
 19 20  1  0
 11 21  1  0
 21 22  1  0
  7  3  2  0
 22  8  1  0
 20 12  1  0
 20 16  2  0
  4 23  1  0
  5 24  1  0
  7 25  1  0
  9 26  1  0
  9 27  1  0
 10 28  1  0
 10 29  1  0
 13 30  1  0
 14 31  1  0
 15 32  1  0
 17 33  1  0
 18 34  1  0
 21 35  1  0
 21 36  1  0
 22 37  1  0
 22 38  1  0
M  END
>  <Energy>  (202) 
612.05504194305843

>  <compound_id>  (202) 
4900

>  <target_id>  (202) 
1

>  <reference_id>  (202) 
76

>  <inspiration_ids>  (202) 
[94, 76]

>  <energy_score>  (202) 
472.6327648115771

>  <distance_score>  (202) 
15.400026175103596

>  <path>  (202) 
/opt/xchem-fragalysis-2/maxwin/BulkDock/SCRATCH/511018/C4900-P76/C4900-P76.minimised.mol

>  <scratch_subdir>  (202) 
/opt/xchem-fragalysis-2/maxwin/BulkDock/SCRATCH/511018/C4900-P76

>  <fragmenstein_runtime>  (202) 
28.338977098464966

>  <fragmenstein_outcome>  (202) 
too moved

>  <fragmenstein_mode>  (202) 
expansion

>  <fragmenstein_error>  (202) 


$$$$
C4901-P94
     RDKit          3D

 35 37  0  0  0  0  0  0  0  0999 V2000
    2.7490  -14.0122   20.7115 O   0  0  0  0  0  0  0  0  0  0  0  0
    2.2018  -14.9293   20.1227 C   0  0  0  0  0  0  0  0  0  0  0  0
    2.9917  -15.1663   18.4150 C   0  0  0  0  0  0  0  0  0  0  0  0
    3.8034  -13.8686   17.8279 C   0  0  0  0  0  0  0  0  0  0  0  0
    5.1349  -13.4334   18.2277 C   0  0  0  0  0  0  0  0  0  0  0  0
    5.5875  -12.3013   17.5820 C   0  0  0  0  0  0  0  0  0  0  0  0
    4.4577  -11.7469   16.4371 S   0  0  0  0  0  0  0  0  0  0  0  0
    3.3763  -13.0382   16.7987 C   0  0  0  0  0  0  0  0  0  0  0  0
    0.7759  -15.8576   20.6077 N   0  0  0  0  0  0  0  0  0  0  0  0
   -0.4062  -15.6205   22.0701 C   0  0  0  0  0  0  0  0  0  0  0  0
   -1.3702  -15.3007   23.9473 C   0  0  0  0  0  0  0  0  0  0  0  0
   -2.4999  -15.9839   25.4483 C   0  0  0  0  0  0  0  0  0  0  0  0
   -2.5265  -17.2937   26.0271 N   0  0  0  0  0  0  0  0  0  0  0  0
   -3.5720  -17.4036   27.3312 C   0  0  0  0  0  0  0  0  0  0  0  0
   -5.1311  -18.3831   27.6302 C   0  0  0  0  0  0  0  0  0  0  0  0
   -6.3129  -18.1494   28.6353 C   0  0  0  0  0  0  0  0  0  0  0  0
   -6.2403  -17.1033   29.4651 C   0  0  0  0  0  0  0  0  0  0  0  0
   -4.9841  -16.4156   29.3513 C   0  0  0  0  0  0  0  0  0  0  0  0
   -3.5460  -16.3912   28.2127 C   0  0  0  0  0  0  0  0  0  0  0  0
   -2.2595  -15.6312   27.2926 N   0  0  0  0  0  0  0  0  0  0  0  0
    3.7145  -15.9897   18.3284 H   0  0  0  0  0  0  0  0  0  0  0  0
    2.1506  -15.3311   17.7253 H   0  0  0  0  0  0  0  0  0  0  0  0
    5.7261  -13.9290   18.9869 H   0  0  0  0  0  0  0  0  0  0  0  0
    6.5274  -11.7881   17.7279 H   0  0  0  0  0  0  0  0  0  0  0  0
    2.4558  -13.1122   16.2374 H   0  0  0  0  0  0  0  0  0  0  0  0
    0.5140  -16.4990   19.8665 H   0  0  0  0  0  0  0  0  0  0  0  0
   -1.2265  -14.9229   21.7486 H   0  0  0  0  0  0  0  0  0  0  0  0
   -0.4187  -16.7081   21.7682 H   0  0  0  0  0  0  0  0  0  0  0  0
   -0.8720  -14.4456   24.3862 H   0  0  0  0  0  0  0  0  0  0  0  0
   -2.4017  -15.2138   23.5591 H   0  0  0  0  0  0  0  0  0  0  0  0
   -5.3052  -19.2921   27.0104 H   0  0  0  0  0  0  0  0  0  0  0  0
   -7.1710  -18.8007   28.6421 H   0  0  0  0  0  0  0  0  0  0  0  0
   -6.9832  -16.8401   30.2016 H   0  0  0  0  0  0  0  0  0  0  0  0
   -5.1592  -15.5855   30.0479 H   0  0  0  0  0  0  0  0  0  0  0  0
   -1.5160  -16.2087   27.5797 H   0  0  0  0  0  0  0  0  0  0  0  0
  1  2  2  0
  2  3  1  0
  3  4  1  0
  4  5  1  0
  5  6  2  0
  6  7  1  0
  7  8  1  0
  2  9  1  0
  9 10  1  0
 10 11  1  0
 11 12  1  0
 12 13  2  0
 13 14  1  0
 14 15  2  0
 15 16  1  0
 16 17  2  0
 17 18  1  0
 18 19  2  0
 19 20  1  0
  8  4  2  0
 20 12  1  0
 19 14  1  0
  3 21  1  0
  3 22  1  0
  5 23  1  0
  6 24  1  0
  8 25  1  0
  9 26  1  0
 10 27  1  0
 10 28  1  0
 11 29  1  0
 11 30  1  0
 15 31  1  0
 16 32  1  0
 17 33  1  0
 18 34  1  0
 20 35  1  0
M  END
>  <Energy>  (203) 
798.00635390903358

>  <compound_id>  (203) 
4901

>  <target_id>  (203) 
1

>  <reference_id>  (203) 
94

>  <inspiration_ids>  (203) 
[94, 76]

>  <energy_score>  (203) 
741.0581853089157

>  <distance_score>  (203) 
12.975542998807436

>  <path>  (203) 
/opt/xchem-fragalysis-2/maxwin/BulkDock/SCRATCH/511018/C4901-P94/C4901-P94.minimised.mol

>  <scratch_subdir>  (203) 
/opt/xchem-fragalysis-2/maxwin/BulkDock/SCRATCH/511018/C4901-P94

>  <fragmenstein_runtime>  (203) 
25.362249612808228

>  <fragmenstein_outcome>  (203) 
too moved

>  <fragmenstein_mode>  (203) 
expansion

>  <fragmenstein_error>  (203) 


$$$$
C4901-P76
     RDKit          3D

 35 37  0  0  0  0  0  0  0  0999 V2000
   -4.0298  -10.5889   20.8140 O   0  0  0  0  0  0  0  0  0  0  0  0
   -3.6284   -9.9766   21.7955 C   0  0  0  0  0  0  0  0  0  0  0  0
   -2.9731   -8.5713   21.5009 C   0  0  0  0  0  0  0  0  0  0  0  0
   -1.5198   -8.1057   21.3351 C   0  0  0  0  0  0  0  0  0  0  0  0
   -0.3035   -8.8329   21.4064 C   0  0  0  0  0  0  0  0  0  0  0  0
    0.8301   -8.0908   21.1073 C   0  0  0  0  0  0  0  0  0  0  0  0
    0.4683   -6.4678   20.7742 S   0  0  0  0  0  0  0  0  0  0  0  0
   -1.2031   -6.7852   20.9928 C   0  0  0  0  0  0  0  0  0  0  0  0
   -3.7578  -10.3189   23.3590 N   0  0  0  0  0  0  0  0  0  0  0  0
   -4.7227  -11.7612   24.2827 C   0  0  0  0  0  0  0  0  0  0  0  0
   -6.6029  -11.9158   24.6419 C   0  0  0  0  0  0  0  0  0  0  0  0
   -7.4087  -12.9549   25.5202 C   0  0  0  0  0  0  0  0  0  0  0  0
   -8.1439  -13.9748   25.0838 N   0  0  0  0  0  0  0  0  0  0  0  0
   -8.8770  -14.4467   26.1618 C   0  0  0  0  0  0  0  0  0  0  0  0
   -9.7933  -15.5114   26.2576 C   0  0  0  0  0  0  0  0  0  0  0  0
  -10.4105  -15.7677   27.4894 C   0  0  0  0  0  0  0  0  0  0  0  0
  -10.1328  -14.9761   28.6001 C   0  0  0  0  0  0  0  0  0  0  0  0
   -9.1981  -13.9378   28.5365 C   0  0  0  0  0  0  0  0  0  0  0  0
   -8.5966  -13.6971   27.2964 C   0  0  0  0  0  0  0  0  0  0  0  0
   -7.6633  -12.7702   26.8745 N   0  0  0  0  0  0  0  0  0  0  0  0
   -3.5044   -7.8375   22.1044 H   0  0  0  0  0  0  0  0  0  0  0  0
   -3.3909   -8.3495   20.5008 H   0  0  0  0  0  0  0  0  0  0  0  0
   -0.2439   -9.8916   21.6166 H   0  0  0  0  0  0  0  0  0  0  0  0
    1.8465   -8.4559   21.0654 H   0  0  0  0  0  0  0  0  0  0  0  0
   -1.9022   -5.9760   20.8351 H   0  0  0  0  0  0  0  0  0  0  0  0
   -3.3844   -9.5490   23.9044 H   0  0  0  0  0  0  0  0  0  0  0  0
   -4.8988  -12.7736   23.9077 H   0  0  0  0  0  0  0  0  0  0  0  0
   -3.9161  -12.0606   24.9768 H   0  0  0  0  0  0  0  0  0  0  0  0
   -6.9915  -10.9918   25.1000 H   0  0  0  0  0  0  0  0  0  0  0  0
   -7.0437  -12.0287   23.6371 H   0  0  0  0  0  0  0  0  0  0  0  0
  -10.0220  -16.0950   25.3741 H   0  0  0  0  0  0  0  0  0  0  0  0
  -11.1410  -16.5588   27.5877 H   0  0  0  0  0  0  0  0  0  0  0  0
  -10.6679  -15.1480   29.5312 H   0  0  0  0  0  0  0  0  0  0  0  0
   -8.9742  -13.3282   29.4057 H   0  0  0  0  0  0  0  0  0  0  0  0
   -7.2516  -12.0465   27.4494 H   0  0  0  0  0  0  0  0  0  0  0  0
  1  2  2  0
  2  3  1  0
  3  4  1  0
  4  5  1  0
  5  6  2  0
  6  7  1  0
  7  8  1  0
  2  9  1  0
  9 10  1  0
 10 11  1  0
 11 12  1  0
 12 13  2  0
 13 14  1  0
 14 15  2  0
 15 16  1  0
 16 17  2  0
 17 18  1  0
 18 19  2  0
 19 20  1  0
  8  4  2  0
 20 12  1  0
 19 14  1  0
  3 21  1  0
  3 22  1  0
  5 23  1  0
  6 24  1  0
  8 25  1  0
  9 26  1  0
 10 27  1  0
 10 28  1  0
 11 29  1  0
 11 30  1  0
 15 31  1  0
 16 32  1  0
 17 33  1  0
 18 34  1  0
 20 35  1  0
M  END
>  <Energy>  (204) 
215.16423166717621

>  <compound_id>  (204) 
4901

>  <target_id>  (204) 
1

>  <reference_id>  (204) 
76

>  <inspiration_ids>  (204) 
[94, 76]

>  <energy_score>  (204) 
158.21606306706371

>  <distance_score>  (204) 
13.856689290415302

>  <path>  (204) 
/opt/xchem-fragalysis-2/maxwin/BulkDock/SCRATCH/511018/C4901-P76/C4901-P76.minimised.mol

>  <scratch_subdir>  (204) 
/opt/xchem-fragalysis-2/maxwin/BulkDock/SCRATCH/511018/C4901-P76

>  <fragmenstein_runtime>  (204) 
15.501975297927856

>  <fragmenstein_outcome>  (204) 
too moved

>  <fragmenstein_mode>  (204) 
expansion

>  <fragmenstein_error>  (204) 


$$$$
C4902-P94
     RDKit          3D

 38 40  0  0  0  0  0  0  0  0999 V2000
   -7.5049  -16.5403   28.9251 C   0  0  0  0  0  0  0  0  0  0  0  0
   -7.3377  -17.4313   27.7126 N   0  0  0  0  0  0  0  0  0  0  0  0
   -5.3665  -18.0756   27.3119 C   0  0  0  0  0  0  0  0  0  0  0  0
   -3.4640  -17.0673   27.0031 C   0  0  0  0  0  0  0  0  0  0  0  0
   -2.5047  -15.8156   25.4753 C   0  0  0  0  0  0  0  0  0  0  0  0
   -0.9672  -14.8361   24.4995 N   0  0  0  0  0  0  0  0  0  0  0  0
    0.6732  -13.9677   25.1495 C   0  0  0  0  0  0  0  0  0  0  0  0
    0.9853  -13.8044   26.3630 O   0  0  0  0  0  0  0  0  0  0  0  0
    2.0953  -13.2929   24.0339 C   0  0  0  0  0  0  0  0  0  0  0  0
    3.7381  -13.6992   23.5878 C   0  0  0  0  0  0  0  0  0  0  0  0
    4.4021  -13.1841   22.4048 C   0  0  0  0  0  0  0  0  0  0  0  0
    5.7802  -13.2044   22.4093 C   0  0  0  0  0  0  0  0  0  0  0  0
    6.3587  -13.9290   23.8269 S   0  0  0  0  0  0  0  0  0  0  0  0
    4.7540  -14.2259   24.3887 C   0  0  0  0  0  0  0  0  0  0  0  0
   -5.7168  -19.5558   26.7096 N   0  0  0  0  0  0  0  0  0  0  0  0
   -7.0650  -20.3746   27.2337 C   0  0  0  0  0  0  0  0  0  0  0  0
   -7.3466  -22.0084   27.3756 C   0  0  0  0  0  0  0  0  0  0  0  0
   -8.6566  -22.7920   28.0029 C   0  0  0  0  0  0  0  0  0  0  0  0
   -9.8260  -22.0197   28.2602 C   0  0  0  0  0  0  0  0  0  0  0  0
   -9.4350  -20.5624   27.8183 C   0  0  0  0  0  0  0  0  0  0  0  0
   -8.2064  -19.1288   28.0798 C   0  0  0  0  0  0  0  0  0  0  0  0
   -7.3269  -17.1368   29.8152 H   0  0  0  0  0  0  0  0  0  0  0  0
   -6.7872  -15.7260   28.9166 H   0  0  0  0  0  0  0  0  0  0  0  0
   -8.5152  -16.1433   28.8302 H   0  0  0  0  0  0  0  0  0  0  0  0
   -2.6573  -17.8132   27.0995 H   0  0  0  0  0  0  0  0  0  0  0  0
   -3.3680  -16.5181   27.9487 H   0  0  0  0  0  0  0  0  0  0  0  0
   -2.2910  -16.7867   25.0446 H   0  0  0  0  0  0  0  0  0  0  0  0
   -3.2423  -15.6245   24.6939 H   0  0  0  0  0  0  0  0  0  0  0  0
   -1.0149  -14.7646   23.4907 H   0  0  0  0  0  0  0  0  0  0  0  0
    2.5480  -13.2714   24.9684 H   0  0  0  0  0  0  0  0  0  0  0  0
    2.0251  -12.2152   23.8530 H   0  0  0  0  0  0  0  0  0  0  0  0
    3.8794  -12.8256   21.5497 H   0  0  0  0  0  0  0  0  0  0  0  0
    6.4492  -12.8607   21.6323 H   0  0  0  0  0  0  0  0  0  0  0  0
    4.6563  -14.6655   25.3721 H   0  0  0  0  0  0  0  0  0  0  0  0
   -6.5095  -22.5928   26.9936 H   0  0  0  0  0  0  0  0  0  0  0  0
   -8.8632  -23.8499   28.0358 H   0  0  0  0  0  0  0  0  0  0  0  0
  -10.8201  -22.4426   28.1419 H   0  0  0  0  0  0  0  0  0  0  0  0
   -9.9715  -20.6959   26.8859 H   0  0  0  0  0  0  0  0  0  0  0  0
  1  2  1  0
  2  3  1  0
  3  4  1  0
  4  5  1  0
  5  6  1  0
  6  7  1  0
  7  8  2  0
  7  9  1  0
  9 10  1  0
 10 11  1  0
 11 12  2  0
 12 13  1  0
 13 14  1  0
  3 15  2  0
 15 16  1  0
 16 17  2  0
 17 18  1  0
 18 19  2  0
 19 20  1  0
 20 21  2  0
 21  2  1  0
 14 10  2  0
 21 16  1  0
  1 22  1  0
  1 23  1  0
  1 24  1  0
  4 25  1  0
  4 26  1  0
  5 27  1  0
  5 28  1  0
  6 29  1  0
  9 30  1  0
  9 31  1  0
 11 32  1  0
 12 33  1  0
 14 34  1  0
 17 35  1  0
 18 36  1  0
 19 37  1  0
 20 38  1  0
M  END
>  <Energy>  (205) 
1341.8723620060759

>  <compound_id>  (205) 
4902

>  <target_id>  (205) 
1

>  <reference_id>  (205) 
94

>  <inspiration_ids>  (205) 
[94, 76]

>  <energy_score>  (205) 
1279.5043882678403

>  <distance_score>  (205) 
12.035236619377297

>  <path>  (205) 
/opt/xchem-fragalysis-2/maxwin/BulkDock/SCRATCH/511018/C4902-P94/C4902-P94.minimised.mol

>  <scratch_subdir>  (205) 
/opt/xchem-fragalysis-2/maxwin/BulkDock/SCRATCH/511018/C4902-P94

>  <fragmenstein_runtime>  (205) 
24.60900115966797

>  <fragmenstein_outcome>  (205) 
too moved

>  <fragmenstein_mode>  (205) 
expansion

>  <fragmenstein_error>  (205) 


$$$$
C4902-P76
     RDKit          3D

 38 40  0  0  0  0  0  0  0  0999 V2000
   -9.2834  -15.8267   27.2832 C   0  0  0  0  0  0  0  0  0  0  0  0
   -8.1193  -16.6049   27.7231 N   0  0  0  0  0  0  0  0  0  0  0  0
   -7.4911  -16.3496   29.0147 C   0  0  0  0  0  0  0  0  0  0  0  0
   -6.4633  -15.4305   29.7056 C   0  0  0  0  0  0  0  0  0  0  0  0
   -4.8589  -16.2270   29.8681 C   0  0  0  0  0  0  0  0  0  0  0  0
   -3.2249  -15.5794   30.3017 N   0  0  0  0  0  0  0  0  0  0  0  0
   -2.0089  -14.7399   29.3177 C   0  0  0  0  0  0  0  0  0  0  0  0
   -1.9949  -14.4983   28.1155 O   0  0  0  0  0  0  0  0  0  0  0  0
   -0.6454  -14.3126   30.0805 C   0  0  0  0  0  0  0  0  0  0  0  0
    0.1164  -13.0376   29.5176 C   0  0  0  0  0  0  0  0  0  0  0  0
    1.5004  -12.7428   29.8443 C   0  0  0  0  0  0  0  0  0  0  0  0
    1.9263  -11.5013   29.4214 C   0  0  0  0  0  0  0  0  0  0  0  0
    0.7213  -10.6997   28.5270 S   0  0  0  0  0  0  0  0  0  0  0  0
   -0.3652  -12.0219   28.7004 C   0  0  0  0  0  0  0  0  0  0  0  0
   -7.7027  -17.4727   29.5678 N   0  0  0  0  0  0  0  0  0  0  0  0
   -8.5609  -18.1035   28.6688 C   0  0  0  0  0  0  0  0  0  0  0  0
   -8.5370  -19.4732   28.3303 C   0  0  0  0  0  0  0  0  0  0  0  0
   -7.7338  -21.0157   27.5480 C   0  0  0  0  0  0  0  0  0  0  0  0
   -6.6438  -21.0473   26.9063 C   0  0  0  0  0  0  0  0  0  0  0  0
   -6.9290  -19.7512   26.8367 C   0  0  0  0  0  0  0  0  0  0  0  0
   -8.1506  -18.2475   27.5033 C   0  0  0  0  0  0  0  0  0  0  0  0
   -9.1219  -15.5743   26.2334 H   0  0  0  0  0  0  0  0  0  0  0  0
  -10.1922  -16.4194   27.4025 H   0  0  0  0  0  0  0  0  0  0  0  0
   -9.3384  -14.9158   27.8841 H   0  0  0  0  0  0  0  0  0  0  0  0
   -6.8320  -15.3314   30.7328 H   0  0  0  0  0  0  0  0  0  0  0  0
   -6.4962  -14.4231   29.3022 H   0  0  0  0  0  0  0  0  0  0  0  0
   -4.5690  -16.4204   28.8861 H   0  0  0  0  0  0  0  0  0  0  0  0
   -5.1095  -16.9652   30.6208 H   0  0  0  0  0  0  0  0  0  0  0  0
   -2.8894  -15.6884   31.2614 H   0  0  0  0  0  0  0  0  0  0  0  0
    0.0536  -15.1450   29.9313 H   0  0  0  0  0  0  0  0  0  0  0  0
   -0.7485  -14.2027   31.1618 H   0  0  0  0  0  0  0  0  0  0  0  0
    2.1235  -13.3986   30.4416 H   0  0  0  0  0  0  0  0  0  0  0  0
    2.8814  -11.0351   29.6169 H   0  0  0  0  0  0  0  0  0  0  0  0
   -1.3443  -11.9596   28.2418 H   0  0  0  0  0  0  0  0  0  0  0  0
   -9.4760  -20.0068   28.2611 H   0  0  0  0  0  0  0  0  0  0  0  0
   -8.1265  -22.0224   27.8017 H   0  0  0  0  0  0  0  0  0  0  0  0
   -5.9489  -21.7306   26.5002 H   0  0  0  0  0  0  0  0  0  0  0  0
   -5.9848  -19.4473   26.2792 H   0  0  0  0  0  0  0  0  0  0  0  0
  1  2  1  0
  2  3  1  0
  3  4  1  0
  4  5  1  0
  5  6  1  0
  6  7  1  0
  7  8  2  0
  7  9  1  0
  9 10  1  0
 10 11  1  0
 11 12  2  0
 12 13  1  0
 13 14  1  0
  3 15  2  0
 15 16  1  0
 16 17  2  0
 17 18  1  0
 18 19  2  0
 19 20  1  0
 20 21  2  0
 21  2  1  0
 14 10  2  0
 21 16  1  0
  1 22  1  0
  1 23  1  0
  1 24  1  0
  4 25  1  0
  4 26  1  0
  5 27  1  0
  5 28  1  0
  6 29  1  0
  9 30  1  0
  9 31  1  0
 11 32  1  0
 12 33  1  0
 14 34  1  0
 17 35  1  0
 18 36  1  0
 19 37  1  0
 20 38  1  0
M  END
>  <Energy>  (206) 
660.84322252196591

>  <compound_id>  (206) 
4902

>  <target_id>  (206) 
1

>  <reference_id>  (206) 
76

>  <inspiration_ids>  (206) 
[94, 76]

>  <energy_score>  (206) 
598.4752487837206

>  <distance_score>  (206) 
14.858175775092617

>  <path>  (206) 
/opt/xchem-fragalysis-2/maxwin/BulkDock/SCRATCH/511018/C4902-P76/C4902-P76.minimised.mol

>  <scratch_subdir>  (206) 
/opt/xchem-fragalysis-2/maxwin/BulkDock/SCRATCH/511018/C4902-P76

>  <fragmenstein_runtime>  (206) 
19.382578372955322

>  <fragmenstein_outcome>  (206) 
too moved

>  <fragmenstein_mode>  (206) 
expansion

>  <fragmenstein_error>  (206) 


$$$$
C4895-P94
     RDKit          3D

 40 43  0  0  0  0  0  0  0  0999 V2000
    0.0497  -16.6860   21.3562 O   0  0  0  0  0  0  0  0  0  0  0  0
    0.2353  -15.5480   21.7737 C   0  0  0  0  0  0  0  0  0  0  0  0
    1.9945  -14.7123   20.7951 C   0  0  0  0  0  0  0  0  0  0  0  0
    3.3579  -13.3484   21.0468 N   0  0  0  0  0  0  0  0  0  0  0  0
    3.3541  -12.5227   22.2682 N   0  0  0  0  0  0  0  0  0  0  0  0
    4.2184  -11.5557   22.0552 N   0  0  0  0  0  0  0  0  0  0  0  0
    5.0797  -11.8244   20.9544 N   0  0  0  0  0  0  0  0  0  0  0  0
    4.6347  -12.8578   20.2648 C   0  0  0  0  0  0  0  0  0  0  0  0
    5.5894  -13.0977   18.9488 C   0  0  0  0  0  0  0  0  0  0  0  0
    5.5773  -14.0714   17.9244 C   0  0  0  0  0  0  0  0  0  0  0  0
    6.5520  -13.8614   16.9633 C   0  0  0  0  0  0  0  0  0  0  0  0
    7.5493  -12.5230   17.3156 S   0  0  0  0  0  0  0  0  0  0  0  0
    6.6765  -12.2412   18.7534 C   0  0  0  0  0  0  0  0  0  0  0  0
   -0.9324  -14.9141   23.2449 N   0  0  0  0  0  0  0  0  0  0  0  0
   -2.3278  -15.8719   24.3642 C   0  0  0  0  0  0  0  0  0  0  0  0
   -2.4659  -17.8099   25.2881 C   0  0  0  0  0  0  0  0  0  0  0  0
   -3.6367  -19.6088   25.0171 C   0  0  0  0  0  0  0  0  0  0  0  0
   -3.9828  -20.5787   24.1870 N   0  0  0  0  0  0  0  0  0  0  0  0
   -5.3767  -21.2183   24.4641 C   0  0  0  0  0  0  0  0  0  0  0  0
   -6.1921  -22.1028   23.6891 C   0  0  0  0  0  0  0  0  0  0  0  0
   -6.6794  -23.1257   24.4368 C   0  0  0  0  0  0  0  0  0  0  0  0
   -6.6906  -22.9390   25.8425 C   0  0  0  0  0  0  0  0  0  0  0  0
   -6.1265  -21.9789   26.6307 C   0  0  0  0  0  0  0  0  0  0  0  0
   -5.4941  -21.1500   25.7916 C   0  0  0  0  0  0  0  0  0  0  0  0
   -5.2159  -19.8710   25.6943 N   0  0  0  0  0  0  0  0  0  0  0  0
    2.3096  -14.9035   19.7644 H   0  0  0  0  0  0  0  0  0  0  0  0
    2.8583  -14.7803   21.5218 H   0  0  0  0  0  0  0  0  0  0  0  0
    4.8818  -14.8949   17.8658 H   0  0  0  0  0  0  0  0  0  0  0  0
    6.7266  -14.4445   16.0699 H   0  0  0  0  0  0  0  0  0  0  0  0
    7.0099  -11.4339   19.3827 H   0  0  0  0  0  0  0  0  0  0  0  0
   -0.6023  -13.9887   23.5476 H   0  0  0  0  0  0  0  0  0  0  0  0
   -2.2558  -15.1985   25.2188 H   0  0  0  0  0  0  0  0  0  0  0  0
   -3.2678  -15.5719   23.8969 H   0  0  0  0  0  0  0  0  0  0  0  0
   -1.5367  -18.2321   25.7074 H   0  0  0  0  0  0  0  0  0  0  0  0
   -2.6629  -17.3956   26.3208 H   0  0  0  0  0  0  0  0  0  0  0  0
   -6.2175  -22.1181   22.6036 H   0  0  0  0  0  0  0  0  0  0  0  0
   -7.2501  -23.9000   23.9568 H   0  0  0  0  0  0  0  0  0  0  0  0
   -7.5326  -23.3134   26.3751 H   0  0  0  0  0  0  0  0  0  0  0  0
   -6.4355  -21.8121   27.6253 H   0  0  0  0  0  0  0  0  0  0  0  0
   -5.5167  -19.1908   26.3770 H   0  0  0  0  0  0  0  0  0  0  0  0
  1  2  2  0
  2  3  1  0
  3  4  1  0
  4  5  1  0
  5  6  2  0
  6  7  1  0
  7  8  2  0
  8  9  1  0
  9 10  1  0
 10 11  2  0
 11 12  1  0
 12 13  1  0
  2 14  1  0
 14 15  1  0
 15 16  1  0
 16 17  1  0
 17 18  2  0
 18 19  1  0
 19 20  2  0
 20 21  1  0
 21 22  2  0
 22 23  1  0
 23 24  2  0
 24 25  1  0
  8  4  1  0
 13  9  2  0
 25 17  1  0
 24 19  1  0
  3 26  1  0
  3 27  1  0
 10 28  1  0
 11 29  1  0
 13 30  1  0
 14 31  1  0
 15 32  1  0
 15 33  1  0
 16 34  1  0
 16 35  1  0
 20 36  1  0
 21 37  1  0
 22 38  1  0
 23 39  1  0
 25 40  1  0
M  END
>  <Energy>  (207) 
926.03700117214635

>  <compound_id>  (207) 
4895

>  <target_id>  (207) 
1

>  <reference_id>  (207) 
94

>  <inspiration_ids>  (207) 
[94, 76]

>  <energy_score>  (207) 
857.6115989651271

>  <distance_score>  (207) 
11.07475909502039

>  <path>  (207) 
/opt/xchem-fragalysis-2/maxwin/BulkDock/SCRATCH/511018/C4895-P94/C4895-P94.minimised.mol

>  <scratch_subdir>  (207) 
/opt/xchem-fragalysis-2/maxwin/BulkDock/SCRATCH/511018/C4895-P94

>  <fragmenstein_runtime>  (207) 
48.08873462677002

>  <fragmenstein_outcome>  (207) 
too moved

>  <fragmenstein_mode>  (207) 
expansion

>  <fragmenstein_error>  (207) 


$$$$
C4895-P76
     RDKit          3D

 40 43  0  0  0  0  0  0  0  0999 V2000
    1.3095  -13.1058   28.4354 O   0  0  0  0  0  0  0  0  0  0  0  0
    0.4828  -13.3179   27.5643 C   0  0  0  0  0  0  0  0  0  0  0  0
    1.2252  -13.1031   25.8121 C   0  0  0  0  0  0  0  0  0  0  0  0
    2.6894  -12.9810   24.5328 N   0  0  0  0  0  0  0  0  0  0  0  0
    3.7313  -13.9283   24.9550 N   0  0  0  0  0  0  0  0  0  0  0  0
    3.7635  -14.7766   23.9613 N   0  0  0  0  0  0  0  0  0  0  0  0
    2.9908  -14.2909   22.9575 N   0  0  0  0  0  0  0  0  0  0  0  0
    3.1772  -12.8535   22.8771 C   0  0  0  0  0  0  0  0  0  0  0  0
    4.4784  -12.4171   21.2208 C   0  0  0  0  0  0  0  0  0  0  0  0
    6.0237  -11.6887   21.1028 C   0  0  0  0  0  0  0  0  0  0  0  0
    6.8417  -11.8870   20.0122 C   0  0  0  0  0  0  0  0  0  0  0  0
    6.0139  -12.7582   18.8631 S   0  0  0  0  0  0  0  0  0  0  0  0
    4.6027  -12.9035   19.8922 C   0  0  0  0  0  0  0  0  0  0  0  0
   -1.1114  -13.8655   27.7459 N   0  0  0  0  0  0  0  0  0  0  0  0
   -1.9741  -14.3821   29.1570 C   0  0  0  0  0  0  0  0  0  0  0  0
   -3.5045  -15.5124   29.8372 C   0  0  0  0  0  0  0  0  0  0  0  0
   -5.5105  -15.8200   29.8817 C   0  0  0  0  0  0  0  0  0  0  0  0
   -6.2985  -16.8437   29.5777 N   0  0  0  0  0  0  0  0  0  0  0  0
   -7.5528  -16.3374   29.2043 C   0  0  0  0  0  0  0  0  0  0  0  0
   -8.6191  -16.8696   28.4412 C   0  0  0  0  0  0  0  0  0  0  0  0
   -9.7528  -16.1090   28.1291 C   0  0  0  0  0  0  0  0  0  0  0  0
   -9.8497  -14.8083   28.5975 C   0  0  0  0  0  0  0  0  0  0  0  0
   -8.8039  -14.2321   29.3282 C   0  0  0  0  0  0  0  0  0  0  0  0
   -7.6711  -15.0191   29.5668 C   0  0  0  0  0  0  0  0  0  0  0  0
   -6.4281  -14.7120   30.0318 N   0  0  0  0  0  0  0  0  0  0  0  0
    1.2139  -12.0136   25.9083 H   0  0  0  0  0  0  0  0  0  0  0  0
    2.0279  -13.5640   26.3978 H   0  0  0  0  0  0  0  0  0  0  0  0
    6.4560  -11.1273   21.9368 H   0  0  0  0  0  0  0  0  0  0  0  0
    7.8502  -11.5306   19.8547 H   0  0  0  0  0  0  0  0  0  0  0  0
    3.9446  -13.4753   19.2822 H   0  0  0  0  0  0  0  0  0  0  0  0
   -1.5737  -13.8631   26.8446 H   0  0  0  0  0  0  0  0  0  0  0  0
   -1.1264  -14.6974   29.7854 H   0  0  0  0  0  0  0  0  0  0  0  0
   -2.1939  -13.3505   29.4814 H   0  0  0  0  0  0  0  0  0  0  0  0
   -3.8026  -14.4952   30.0154 H   0  0  0  0  0  0  0  0  0  0  0  0
   -3.1123  -15.8930   30.7947 H   0  0  0  0  0  0  0  0  0  0  0  0
   -8.5826  -17.8954   28.1214 H   0  0  0  0  0  0  0  0  0  0  0  0
  -10.5636  -16.5434   27.5572 H   0  0  0  0  0  0  0  0  0  0  0  0
  -10.7357  -14.2170   28.3771 H   0  0  0  0  0  0  0  0  0  0  0  0
   -8.8470  -13.1922   29.6365 H   0  0  0  0  0  0  0  0  0  0  0  0
   -6.1278  -13.7620   30.1885 H   0  0  0  0  0  0  0  0  0  0  0  0
  1  2  2  0
  2  3  1  0
  3  4  1  0
  4  5  1  0
  5  6  2  0
  6  7  1  0
  7  8  2  0
  8  9  1  0
  9 10  1  0
 10 11  2  0
 11 12  1  0
 12 13  1  0
  2 14  1  0
 14 15  1  0
 15 16  1  0
 16 17  1  0
 17 18  2  0
 18 19  1  0
 19 20  2  0
 20 21  1  0
 21 22  2  0
 22 23  1  0
 23 24  2  0
 24 25  1  0
  8  4  1  0
 13  9  2  0
 25 17  1  0
 24 19  1  0
  3 26  1  0
  3 27  1  0
 10 28  1  0
 11 29  1  0
 13 30  1  0
 14 31  1  0
 15 32  1  0
 15 33  1  0
 16 34  1  0
 16 35  1  0
 20 36  1  0
 21 37  1  0
 22 38  1  0
 23 39  1  0
 25 40  1  0
M  END
>  <Energy>  (208) 
731.53755868733003

>  <compound_id>  (208) 
4895

>  <target_id>  (208) 
1

>  <reference_id>  (208) 
76

>  <inspiration_ids>  (208) 
[94, 76]

>  <energy_score>  (208) 
663.1121564803049

>  <distance_score>  (208) 
11.970272814893272

>  <path>  (208) 
/opt/xchem-fragalysis-2/maxwin/BulkDock/SCRATCH/511018/C4895-P76/C4895-P76.minimised.mol

>  <scratch_subdir>  (208) 
/opt/xchem-fragalysis-2/maxwin/BulkDock/SCRATCH/511018/C4895-P76

>  <fragmenstein_runtime>  (208) 
23.82642674446106

>  <fragmenstein_outcome>  (208) 
too moved

>  <fragmenstein_mode>  (208) 
expansion

>  <fragmenstein_error>  (208) 


$$$$
C4903-P94
     RDKit          3D

 41 44  0  0  0  0  0  0  0  0999 V2000
   -2.1453  -14.1078   25.6793 O   0  0  0  0  0  0  0  0  0  0  0  0
   -1.5056  -14.6544   26.5589 C   0  0  0  0  0  0  0  0  0  0  0  0
    0.4743  -13.7229   26.7338 C   0  0  0  0  0  0  0  0  0  0  0  0
    2.4137  -13.9163   26.2818 C   0  0  0  0  0  0  0  0  0  0  0  0
    3.4337  -13.9252   24.8930 C   0  0  0  0  0  0  0  0  0  0  0  0
    4.8898  -15.2515   25.2424 S   0  0  0  0  0  0  0  0  0  0  0  0
    4.9218  -14.3545   26.6759 C   0  0  0  0  0  0  0  0  0  0  0  0
    6.2387  -13.2794   26.8104 C   0  0  0  0  0  0  0  0  0  0  0  0
    7.3549  -13.2522   25.8774 C   0  0  0  0  0  0  0  0  0  0  0  0
    8.1588  -12.1383   26.0056 C   0  0  0  0  0  0  0  0  0  0  0  0
    7.6425  -11.1462   27.2931 S   0  0  0  0  0  0  0  0  0  0  0  0
    6.3516  -12.2228   27.6892 C   0  0  0  0  0  0  0  0  0  0  0  0
    3.6515  -14.3965   27.1817 N   0  0  0  0  0  0  0  0  0  0  0  0
   -1.9486  -16.0440   27.4468 N   0  0  0  0  0  0  0  0  0  0  0  0
   -3.3941  -17.1905   27.2648 C   0  0  0  0  0  0  0  0  0  0  0  0
   -4.8657  -18.6759   27.5220 C   0  0  0  0  0  0  0  0  0  0  0  0
   -5.8177  -20.3702   26.7952 C   0  0  0  0  0  0  0  0  0  0  0  0
   -5.8852  -21.8577   26.9517 N   0  0  0  0  0  0  0  0  0  0  0  0
   -7.2695  -22.7638   27.3846 C   0  0  0  0  0  0  0  0  0  0  0  0
   -8.7588  -23.6050   27.8033 C   0  0  0  0  0  0  0  0  0  0  0  0
  -10.1912  -23.7769   27.9633 C   0  0  0  0  0  0  0  0  0  0  0  0
  -10.7948  -22.6367   28.1607 C   0  0  0  0  0  0  0  0  0  0  0  0
   -9.7962  -21.6927   28.1386 C   0  0  0  0  0  0  0  0  0  0  0  0
   -7.9924  -21.6637   27.5907 C   0  0  0  0  0  0  0  0  0  0  0  0
   -7.1435  -20.5729   27.2740 N   0  0  0  0  0  0  0  0  0  0  0  0
    1.0686  -14.6328   26.7338 H   0  0  0  0  0  0  0  0  0  0  0  0
    0.6392  -13.0031   25.9984 H   0  0  0  0  0  0  0  0  0  0  0  0
    3.1202  -13.7102   23.8754 H   0  0  0  0  0  0  0  0  0  0  0  0
    7.5242  -13.9910   25.1038 H   0  0  0  0  0  0  0  0  0  0  0  0
    9.0229  -11.8721   25.4119 H   0  0  0  0  0  0  0  0  0  0  0  0
    5.6988  -11.9732   28.5107 H   0  0  0  0  0  0  0  0  0  0  0  0
   -1.1991  -16.3063   28.0348 H   0  0  0  0  0  0  0  0  0  0  0  0
   -2.5852  -17.9092   27.1487 H   0  0  0  0  0  0  0  0  0  0  0  0
   -3.6631  -16.6073   28.1461 H   0  0  0  0  0  0  0  0  0  0  0  0
   -5.4025  -18.0301   28.2557 H   0  0  0  0  0  0  0  0  0  0  0  0
   -5.5068  -18.3448   26.8679 H   0  0  0  0  0  0  0  0  0  0  0  0
   -8.5603  -24.4985   28.5005 H   0  0  0  0  0  0  0  0  0  0  0  0
  -10.6492  -24.7268   28.2134 H   0  0  0  0  0  0  0  0  0  0  0  0
  -11.8011  -22.4949   28.5143 H   0  0  0  0  0  0  0  0  0  0  0  0
  -10.1355  -20.8779   28.7704 H   0  0  0  0  0  0  0  0  0  0  0  0
   -7.3961  -19.7527   27.7730 H   0  0  0  0  0  0  0  0  0  0  0  0
  1  2  2  0
  2  3  1  0
  3  4  1  0
  4  5  2  0
  5  6  1  0
  6  7  1  0
  7  8  1  0
  8  9  1  0
  9 10  2  0
 10 11  1  0
 11 12  1  0
  7 13  2  0
  2 14  1  0
 14 15  1  0
 15 16  1  0
 16 17  1  0
 17 18  2  0
 18 19  1  0
 19 20  2  0
 20 21  1  0
 21 22  2  0
 22 23  1  0
 23 24  2  0
 24 25  1  0
 13  4  1  0
 25 17  1  0
 12  8  2  0
 24 19  1  0
  3 26  1  0
  3 27  1  0
  5 28  1  0
  9 29  1  0
 10 30  1  0
 12 31  1  0
 14 32  1  0
 15 33  1  0
 15 34  1  0
 16 35  1  0
 16 36  1  0
 20 37  1  0
 21 38  1  0
 22 39  1  0
 23 40  1  0
 25 41  1  0
M  END
>  <Energy>  (209) 
1203.9980702031437

>  <compound_id>  (209) 
4903

>  <target_id>  (209) 
1

>  <reference_id>  (209) 
94

>  <inspiration_ids>  (209) 
[94, 76]

>  <energy_score>  (209) 
1080.316387749982

>  <distance_score>  (209) 
11.853753738795566

>  <path>  (209) 
/opt/xchem-fragalysis-2/maxwin/BulkDock/SCRATCH/511018/C4903-P94/C4903-P94.minimised.mol

>  <scratch_subdir>  (209) 
/opt/xchem-fragalysis-2/maxwin/BulkDock/SCRATCH/511018/C4903-P94

>  <fragmenstein_runtime>  (209) 
45.94374990463257

>  <fragmenstein_outcome>  (209) 
too moved

>  <fragmenstein_mode>  (209) 
expansion

>  <fragmenstein_error>  (209) 


$$$$
C4903-P76
     RDKit          3D

 41 44  0  0  0  0  0  0  0  0999 V2000
   -1.1100   -8.8741   30.0569 O   0  0  0  0  0  0  0  0  0  0  0  0
   -0.5318   -9.3293   29.1006 C   0  0  0  0  0  0  0  0  0  0  0  0
   -0.1194   -8.3072   27.9336 C   0  0  0  0  0  0  0  0  0  0  0  0
   -0.2351   -6.7306   27.9755 C   0  0  0  0  0  0  0  0  0  0  0  0
   -1.3527   -5.9697   27.6866 C   0  0  0  0  0  0  0  0  0  0  0  0
   -0.8950   -4.4173   27.0481 S   0  0  0  0  0  0  0  0  0  0  0  0
    0.7730   -4.7973   27.2369 C   0  0  0  0  0  0  0  0  0  0  0  0
    2.0242   -3.9107   26.6079 C   0  0  0  0  0  0  0  0  0  0  0  0
    3.4258   -4.1622   26.8169 C   0  0  0  0  0  0  0  0  0  0  0  0
    4.2483   -3.2816   26.1413 C   0  0  0  0  0  0  0  0  0  0  0  0
    3.3485   -2.1115   25.2793 S   0  0  0  0  0  0  0  0  0  0  0  0
    1.8585   -2.8240   25.7674 C   0  0  0  0  0  0  0  0  0  0  0  0
    0.9431   -5.9183   27.9317 N   0  0  0  0  0  0  0  0  0  0  0  0
   -0.1977  -10.7615   28.7455 N   0  0  0  0  0  0  0  0  0  0  0  0
   -0.5753  -12.0754   29.4300 C   0  0  0  0  0  0  0  0  0  0  0  0
    0.5503  -13.0395   30.0044 C   0  0  0  0  0  0  0  0  0  0  0  0
    0.1888  -14.2176   30.9976 C   0  0  0  0  0  0  0  0  0  0  0  0
    0.6641  -15.4642   30.9583 N   0  0  0  0  0  0  0  0  0  0  0  0
    0.0720  -16.1778   32.0050 C   0  0  0  0  0  0  0  0  0  0  0  0
    0.0929  -17.5560   32.3289 C   0  0  0  0  0  0  0  0  0  0  0  0
   -0.8672  -18.0691   33.2204 C   0  0  0  0  0  0  0  0  0  0  0  0
   -1.7792  -17.2172   33.8439 C   0  0  0  0  0  0  0  0  0  0  0  0
   -1.7320  -15.8314   33.6300 C   0  0  0  0  0  0  0  0  0  0  0  0
   -0.7993  -15.3538   32.6928 C   0  0  0  0  0  0  0  0  0  0  0  0
   -0.4940  -14.0974   32.1997 N   0  0  0  0  0  0  0  0  0  0  0  0
    0.9042   -8.5493   27.6957 H   0  0  0  0  0  0  0  0  0  0  0  0
   -0.6361   -8.5789   27.0268 H   0  0  0  0  0  0  0  0  0  0  0  0
   -2.3870   -6.2710   27.6462 H   0  0  0  0  0  0  0  0  0  0  0  0
    3.8161   -4.9428   27.4532 H   0  0  0  0  0  0  0  0  0  0  0  0
    5.3291   -3.2542   26.1340 H   0  0  0  0  0  0  0  0  0  0  0  0
    0.9322   -2.3964   25.4089 H   0  0  0  0  0  0  0  0  0  0  0  0
    0.2216  -10.7877   27.8284 H   0  0  0  0  0  0  0  0  0  0  0  0
   -1.3335  -11.8367   30.1652 H   0  0  0  0  0  0  0  0  0  0  0  0
   -1.1046  -12.6383   28.6507 H   0  0  0  0  0  0  0  0  0  0  0  0
    1.3502  -12.4573   30.4657 H   0  0  0  0  0  0  0  0  0  0  0  0
    1.0231  -13.5177   29.1349 H   0  0  0  0  0  0  0  0  0  0  0  0
    0.7624  -18.2202   31.8006 H   0  0  0  0  0  0  0  0  0  0  0  0
   -0.9024  -19.1380   33.4145 H   0  0  0  0  0  0  0  0  0  0  0  0
   -2.5178  -17.6267   34.5298 H   0  0  0  0  0  0  0  0  0  0  0  0
   -2.4212  -15.1643   34.1384 H   0  0  0  0  0  0  0  0  0  0  0  0
   -0.8388  -13.2405   32.5948 H   0  0  0  0  0  0  0  0  0  0  0  0
  1  2  2  0
  2  3  1  0
  3  4  1  0
  4  5  2  0
  5  6  1  0
  6  7  1  0
  7  8  1  0
  8  9  1  0
  9 10  2  0
 10 11  1  0
 11 12  1  0
  7 13  2  0
  2 14  1  0
 14 15  1  0
 15 16  1  0
 16 17  1  0
 17 18  2  0
 18 19  1  0
 19 20  2  0
 20 21  1  0
 21 22  2  0
 22 23  1  0
 23 24  2  0
 24 25  1  0
 13  4  1  0
 25 17  1  0
 12  8  2  0
 24 19  1  0
  3 26  1  0
  3 27  1  0
  5 28  1  0
  9 29  1  0
 10 30  1  0
 12 31  1  0
 14 32  1  0
 15 33  1  0
 15 34  1  0
 16 35  1  0
 16 36  1  0
 20 37  1  0
 21 38  1  0
 22 39  1  0
 23 40  1  0
 25 41  1  0
M  END
>  <Energy>  (210) 
88.194556886696162

>  <compound_id>  (210) 
4903

>  <target_id>  (210) 
1

>  <reference_id>  (210) 
76

>  <inspiration_ids>  (210) 
[94, 76]

>  <energy_score>  (210) 
-35.48712556648047

>  <distance_score>  (210) 
14.690125975615981

>  <path>  (210) 
/opt/xchem-fragalysis-2/maxwin/BulkDock/SCRATCH/511018/C4903-P76/C4903-P76.minimised.mol

>  <scratch_subdir>  (210) 
/opt/xchem-fragalysis-2/maxwin/BulkDock/SCRATCH/511018/C4903-P76

>  <fragmenstein_runtime>  (210) 
39.356744050979614

>  <fragmenstein_outcome>  (210) 
too moved

>  <fragmenstein_mode>  (210) 
expansion

>  <fragmenstein_error>  (210) 


$$$$
C4904-P94
     RDKit          3D

 39 41  0  0  0  0  0  0  0  0999 V2000
   -1.6512  -17.6077   19.9174 C   0  0  0  0  0  0  0  0  0  0  0  0
   -0.4352  -17.6841   20.9893 C   0  0  0  0  0  0  0  0  0  0  0  0
    0.6238  -16.1606   20.4306 C   0  0  0  0  0  0  0  0  0  0  0  0
    2.2295  -14.9074   20.1151 C   0  0  0  0  0  0  0  0  0  0  0  0
    2.8329  -14.6281   18.4798 C   0  0  0  0  0  0  0  0  0  0  0  0
    3.9035  -13.7704   18.1628 C   0  0  0  0  0  0  0  0  0  0  0  0
    4.6439  -12.8423   19.4508 S   0  0  0  0  0  0  0  0  0  0  0  0
    3.1797  -13.6215   20.7876 C   0  0  0  0  0  0  0  0  0  0  0  0
   -1.2121  -18.7860   22.2060 N   0  0  0  0  0  0  0  0  0  0  0  0
   -1.7137  -20.4547   22.9724 C   0  0  0  0  0  0  0  0  0  0  0  0
   -2.7809  -21.7218   22.5889 C   0  0  0  0  0  0  0  0  0  0  0  0
   -3.1295  -22.5680   23.5522 N   0  0  0  0  0  0  0  0  0  0  0  0
   -4.4243  -22.8968   23.2958 C   0  0  0  0  0  0  0  0  0  0  0  0
   -5.4095  -23.3486   24.1548 C   0  0  0  0  0  0  0  0  0  0  0  0
   -6.6978  -23.4372   23.6438 C   0  0  0  0  0  0  0  0  0  0  0  0
   -7.0250  -23.1102   22.3347 C   0  0  0  0  0  0  0  0  0  0  0  0
   -6.0335  -22.7346   21.4528 C   0  0  0  0  0  0  0  0  0  0  0  0
   -4.7483  -22.6060   21.9896 C   0  0  0  0  0  0  0  0  0  0  0  0
   -3.5957  -22.0107   21.4941 N   0  0  0  0  0  0  0  0  0  0  0  0
   -3.6092  -21.4783   20.1652 C   0  0  0  0  0  0  0  0  0  0  0  0
   -2.1419  -16.6296   19.9081 H   0  0  0  0  0  0  0  0  0  0  0  0
   -1.3594  -17.8338   18.8974 H   0  0  0  0  0  0  0  0  0  0  0  0
   -2.4441  -18.3328   20.0309 H   0  0  0  0  0  0  0  0  0  0  0  0
    0.4311  -18.2776   21.0255 H   0  0  0  0  0  0  0  0  0  0  0  0
   -0.2397  -15.8545   19.8454 H   0  0  0  0  0  0  0  0  0  0  0  0
    0.7459  -16.7830   19.5554 H   0  0  0  0  0  0  0  0  0  0  0  0
    2.4630  -15.1972   17.6690 H   0  0  0  0  0  0  0  0  0  0  0  0
    4.3412  -13.6444   17.1833 H   0  0  0  0  0  0  0  0  0  0  0  0
    3.3570  -13.1581   21.7411 H   0  0  0  0  0  0  0  0  0  0  0  0
   -0.4197  -18.6392   22.8704 H   0  0  0  0  0  0  0  0  0  0  0  0
   -0.8047  -21.0237   23.2356 H   0  0  0  0  0  0  0  0  0  0  0  0
   -2.1968  -20.3137   23.9050 H   0  0  0  0  0  0  0  0  0  0  0  0
   -5.1925  -23.5322   25.1932 H   0  0  0  0  0  0  0  0  0  0  0  0
   -7.4728  -23.7929   24.2885 H   0  0  0  0  0  0  0  0  0  0  0  0
   -8.0553  -23.1574   21.9974 H   0  0  0  0  0  0  0  0  0  0  0  0
   -6.2685  -22.4514   20.4340 H   0  0  0  0  0  0  0  0  0  0  0  0
   -2.7904  -20.7960   19.9880 H   0  0  0  0  0  0  0  0  0  0  0  0
   -4.5408  -20.9404   19.9693 H   0  0  0  0  0  0  0  0  0  0  0  0
   -3.5180  -22.3160   19.4674 H   0  0  0  0  0  0  0  0  0  0  0  0
  1  2  1  0
  2  3  1  0
  3  4  1  0
  4  5  1  0
  5  6  2  0
  6  7  1  0
  7  8  1  0
  2  9  1  0
  9 10  1  0
 10 11  1  0
 11 12  2  0
 12 13  1  0
 13 14  2  0
 14 15  1  0
 15 16  2  0
 16 17  1  0
 17 18  2  0
 18 19  1  0
 19 20  1  0
  8  4  2  0
 19 11  1  0
 18 13  1  0
  1 21  1  0
  1 22  1  0
  1 23  1  0
  2 24  1  0
  3 25  1  0
  3 26  1  0
  5 27  1  0
  6 28  1  0
  8 29  1  0
  9 30  1  0
 10 31  1  0
 10 32  1  0
 14 33  1  0
 15 34  1  0
 16 35  1  0
 17 36  1  0
 20 37  1  0
 20 38  1  0
 20 39  1  0
M  END
>  <Energy>  (211) 
600.47059347336085

>  <compound_id>  (211) 
4904

>  <target_id>  (211) 
1

>  <reference_id>  (211) 
94

>  <inspiration_ids>  (211) 
[94, 76]

>  <energy_score>  (211) 
520.755211556823

>  <distance_score>  (211) 
13.968204159563939

>  <path>  (211) 
/opt/xchem-fragalysis-2/maxwin/BulkDock/SCRATCH/511018/C4904-P94/C4904-P94.minimised.mol

>  <scratch_subdir>  (211) 
/opt/xchem-fragalysis-2/maxwin/BulkDock/SCRATCH/511018/C4904-P94

>  <fragmenstein_runtime>  (211) 
23.605921983718872

>  <fragmenstein_outcome>  (211) 
too moved

>  <fragmenstein_mode>  (211) 
expansion

>  <fragmenstein_error>  (211) 


$$$$
C4904-P76
     RDKit          3D

 39 41  0  0  0  0  0  0  0  0999 V2000
   -0.1304  -18.8567   22.7440 C   0  0  0  0  0  0  0  0  0  0  0  0
    0.9584  -18.9282   24.4846 C   0  0  0  0  0  0  0  0  0  0  0  0
    2.8755  -17.9087   24.7086 C   0  0  0  0  0  0  0  0  0  0  0  0
    4.3675  -16.3683   24.7262 C   0  0  0  0  0  0  0  0  0  0  0  0
    4.4761  -14.7789   25.3120 C   0  0  0  0  0  0  0  0  0  0  0  0
    5.6100  -14.2117   25.9689 C   0  0  0  0  0  0  0  0  0  0  0  0
    7.1067  -15.0881   25.9116 S   0  0  0  0  0  0  0  0  0  0  0  0
    6.0720  -16.2685   24.5567 C   0  0  0  0  0  0  0  0  0  0  0  0
    0.2610  -20.2927   23.4010 N   0  0  0  0  0  0  0  0  0  0  0  0
   -0.7961  -21.6093   23.3190 C   0  0  0  0  0  0  0  0  0  0  0  0
   -2.3089  -22.1504   23.2331 C   0  0  0  0  0  0  0  0  0  0  0  0
   -2.8575  -23.0112   24.0733 N   0  0  0  0  0  0  0  0  0  0  0  0
   -4.2011  -23.0205   23.7939 C   0  0  0  0  0  0  0  0  0  0  0  0
   -5.2919  -23.3380   24.5764 C   0  0  0  0  0  0  0  0  0  0  0  0
   -6.5494  -23.3292   23.9830 C   0  0  0  0  0  0  0  0  0  0  0  0
   -6.7648  -22.9437   22.6715 C   0  0  0  0  0  0  0  0  0  0  0  0
   -5.6872  -22.5574   21.8999 C   0  0  0  0  0  0  0  0  0  0  0  0
   -4.4274  -22.5946   22.5163 C   0  0  0  0  0  0  0  0  0  0  0  0
   -3.1662  -22.2242   22.1137 N   0  0  0  0  0  0  0  0  0  0  0  0
   -2.8861  -22.1054   20.7198 C   0  0  0  0  0  0  0  0  0  0  0  0
   -1.1651  -19.2341   22.7777 H   0  0  0  0  0  0  0  0  0  0  0  0
   -0.3227  -17.9088   22.1710 H   0  0  0  0  0  0  0  0  0  0  0  0
    0.4730  -18.9057   21.8096 H   0  0  0  0  0  0  0  0  0  0  0  0
    0.3357  -18.6632   25.3328 H   0  0  0  0  0  0  0  0  0  0  0  0
    3.3708  -18.8850   24.7629 H   0  0  0  0  0  0  0  0  0  0  0  0
    2.7830  -17.7771   25.8058 H   0  0  0  0  0  0  0  0  0  0  0  0
    3.6391  -14.1202   25.3006 H   0  0  0  0  0  0  0  0  0  0  0  0
    5.6604  -13.2662   26.4845 H   0  0  0  0  0  0  0  0  0  0  0  0
    6.7992  -17.0247   24.2531 H   0  0  0  0  0  0  0  0  0  0  0  0
    1.1743  -20.6826   23.2205 H   0  0  0  0  0  0  0  0  0  0  0  0
   -1.1839  -21.0847   22.4763 H   0  0  0  0  0  0  0  0  0  0  0  0
   -0.2142  -22.4378   22.9143 H   0  0  0  0  0  0  0  0  0  0  0  0
   -5.1492  -23.5460   25.6186 H   0  0  0  0  0  0  0  0  0  0  0  0
   -7.3815  -23.6523   24.5690 H   0  0  0  0  0  0  0  0  0  0  0  0
   -7.7686  -22.9300   22.2583 H   0  0  0  0  0  0  0  0  0  0  0  0
   -5.8249  -22.1928   20.8890 H   0  0  0  0  0  0  0  0  0  0  0  0
   -3.7207  -22.4671   20.1130 H   0  0  0  0  0  0  0  0  0  0  0  0
   -2.0420  -22.7531   20.4770 H   0  0  0  0  0  0  0  0  0  0  0  0
   -2.7102  -21.0679   20.4515 H   0  0  0  0  0  0  0  0  0  0  0  0
  1  2  1  0
  2  3  1  0
  3  4  1  0
  4  5  1  0
  5  6  2  0
  6  7  1  0
  7  8  1  0
  2  9  1  0
  9 10  1  0
 10 11  1  0
 11 12  2  0
 12 13  1  0
 13 14  2  0
 14 15  1  0
 15 16  2  0
 16 17  1  0
 17 18  2  0
 18 19  1  0
 19 20  1  0
  8  4  2  0
 19 11  1  0
 18 13  1  0
  1 21  1  0
  1 22  1  0
  1 23  1  0
  2 24  1  0
  3 25  1  0
  3 26  1  0
  5 27  1  0
  6 28  1  0
  8 29  1  0
  9 30  1  0
 10 31  1  0
 10 32  1  0
 14 33  1  0
 15 34  1  0
 16 35  1  0
 17 36  1  0
 20 37  1  0
 20 38  1  0
 20 39  1  0
M  END
>  <Energy>  (212) 
821.98020388381531

>  <compound_id>  (212) 
4904

>  <target_id>  (212) 
1

>  <reference_id>  (212) 
76

>  <inspiration_ids>  (212) 
[94, 76]

>  <energy_score>  (212) 
742.2648219672814

>  <distance_score>  (212) 
14.938671110239705

>  <path>  (212) 
/opt/xchem-fragalysis-2/maxwin/BulkDock/SCRATCH/511018/C4904-P76/C4904-P76.minimised.mol

>  <scratch_subdir>  (212) 
/opt/xchem-fragalysis-2/maxwin/BulkDock/SCRATCH/511018/C4904-P76

>  <fragmenstein_runtime>  (212) 
13.395521640777588

>  <fragmenstein_outcome>  (212) 
too moved

>  <fragmenstein_mode>  (212) 
expansion

>  <fragmenstein_error>  (212) 


$$$$
C4905-P94
     RDKit          3D

 37 40  0  0  0  0  0  0  0  0999 V2000
   -6.1166  -18.2296   28.7880 C   0  0  0  0  0  0  0  0  0  0  0  0
   -5.9899  -17.2440   29.7334 C   0  0  0  0  0  0  0  0  0  0  0  0
   -4.8047  -16.3967   29.6118 C   0  0  0  0  0  0  0  0  0  0  0  0
   -3.4933  -16.2979   28.3241 C   0  0  0  0  0  0  0  0  0  0  0  0
   -2.1781  -15.3403   27.6567 N   0  0  0  0  0  0  0  0  0  0  0  0
   -2.0876  -15.0084   25.9034 C   0  0  0  0  0  0  0  0  0  0  0  0
   -0.8137  -14.0423   24.9706 N   0  0  0  0  0  0  0  0  0  0  0  0
    0.5412  -14.2047   23.6861 C   0  0  0  0  0  0  0  0  0  0  0  0
    2.6019  -13.8316   23.5846 C   0  0  0  0  0  0  0  0  0  0  0  0
    3.1135  -12.3873   23.0814 C   0  0  0  0  0  0  0  0  0  0  0  0
    4.3110  -11.0503   22.2699 C   0  0  0  0  0  0  0  0  0  0  0  0
    4.1797   -9.5474   22.1883 C   0  0  0  0  0  0  0  0  0  0  0  0
    5.2214   -8.8124   21.6470 C   0  0  0  0  0  0  0  0  0  0  0  0
    6.3443   -9.8182   20.9002 S   0  0  0  0  0  0  0  0  0  0  0  0
    5.3223  -11.1614   21.1976 C   0  0  0  0  0  0  0  0  0  0  0  0
    1.9528  -12.3287   24.2249 C   0  0  0  0  0  0  0  0  0  0  0  0
    0.9945  -13.4656   25.6199 C   0  0  0  0  0  0  0  0  0  0  0  0
   -2.6693  -16.6110   25.8606 N   0  0  0  0  0  0  0  0  0  0  0  0
   -3.5350  -17.2664   27.3526 C   0  0  0  0  0  0  0  0  0  0  0  0
   -5.0381  -18.3334   27.6780 C   0  0  0  0  0  0  0  0  0  0  0  0
   -6.9626  -18.8883   28.7579 H   0  0  0  0  0  0  0  0  0  0  0  0
   -6.7274  -17.0725   30.5060 H   0  0  0  0  0  0  0  0  0  0  0  0
   -5.1578  -15.4879   30.1134 H   0  0  0  0  0  0  0  0  0  0  0  0
   -1.7368  -14.6789   28.2685 H   0  0  0  0  0  0  0  0  0  0  0  0
    0.2031  -14.5288   22.5970 H   0  0  0  0  0  0  0  0  0  0  0  0
   -0.1274  -13.5388   23.1073 H   0  0  0  0  0  0  0  0  0  0  0  0
    3.2914  -13.9550   24.4649 H   0  0  0  0  0  0  0  0  0  0  0  0
    3.0314  -14.6479   23.0164 H   0  0  0  0  0  0  0  0  0  0  0  0
    3.2419  -12.8278   22.0924 H   0  0  0  0  0  0  0  0  0  0  0  0
    3.2972   -8.9890   22.4500 H   0  0  0  0  0  0  0  0  0  0  0  0
    5.3000   -7.7364   21.5778 H   0  0  0  0  0  0  0  0  0  0  0  0
    5.5559  -12.0570   20.6244 H   0  0  0  0  0  0  0  0  0  0  0  0
    1.9783  -11.5859   24.9178 H   0  0  0  0  0  0  0  0  0  0  0  0
    1.2933  -11.8230   23.5144 H   0  0  0  0  0  0  0  0  0  0  0  0
    1.5253  -14.0748   26.3260 H   0  0  0  0  0  0  0  0  0  0  0  0
    0.9324  -12.6384   26.2737 H   0  0  0  0  0  0  0  0  0  0  0  0
   -5.3326  -19.1835   27.0256 H   0  0  0  0  0  0  0  0  0  0  0  0
  1  2  2  0
  2  3  1  0
  3  4  2  0
  4  5  1  0
  5  6  1  0
  6  7  1  0
  7  8  1  0
  8  9  1  0
  9 10  1  0
 10 11  1  0
 11 12  1  0
 12 13  2  0
 13 14  1  0
 14 15  1  0
 10 16  1  0
 16 17  1  0
  6 18  2  0
 18 19  1  0
 19 20  2  0
 20  1  1  0
 19  4  1  0
 17  7  1  0
 15 11  2  0
  1 21  1  0
  2 22  1  0
  3 23  1  0
  5 24  1  0
  8 25  1  0
  8 26  1  0
  9 27  1  0
  9 28  1  0
 10 29  1  0
 12 30  1  0
 13 31  1  0
 15 32  1  0
 16 33  1  0
 16 34  1  0
 17 35  1  0
 17 36  1  0
 20 37  1  0
M  END
>  <Energy>  (213) 
1139.1508905298608

>  <compound_id>  (213) 
4905

>  <target_id>  (213) 
1

>  <reference_id>  (213) 
94

>  <inspiration_ids>  (213) 
[94, 76]

>  <energy_score>  (213) 
1103.5051333543756

>  <distance_score>  (213) 
12.60851740831342

>  <path>  (213) 
/opt/xchem-fragalysis-2/maxwin/BulkDock/SCRATCH/511018/C4905-P94/C4905-P94.minimised.mol

>  <scratch_subdir>  (213) 
/opt/xchem-fragalysis-2/maxwin/BulkDock/SCRATCH/511018/C4905-P94

>  <fragmenstein_runtime>  (213) 
13.334951877593994

>  <fragmenstein_outcome>  (213) 
too moved

>  <fragmenstein_mode>  (213) 
expansion

>  <fragmenstein_error>  (213) 


$$$$
C4905-P76
     RDKit          3D

 37 40  0  0  0  0  0  0  0  0999 V2000
   -2.7781  -22.8403   22.9045 C   0  0  0  0  0  0  0  0  0  0  0  0
   -4.0273  -22.6933   23.4986 C   0  0  0  0  0  0  0  0  0  0  0  0
   -4.2486  -21.5556   24.2517 C   0  0  0  0  0  0  0  0  0  0  0  0
   -3.1710  -20.4856   24.2097 C   0  0  0  0  0  0  0  0  0  0  0  0
   -2.6948  -19.3493   25.5845 N   0  0  0  0  0  0  0  0  0  0  0  0
   -2.0422  -17.9694   25.2561 C   0  0  0  0  0  0  0  0  0  0  0  0
   -2.2260  -16.1356   24.8475 N   0  0  0  0  0  0  0  0  0  0  0  0
   -0.9764  -14.6998   24.3828 C   0  0  0  0  0  0  0  0  0  0  0  0
   -0.0522  -14.4488   22.5460 C   0  0  0  0  0  0  0  0  0  0  0  0
    0.5454  -15.8031   21.1375 C   0  0  0  0  0  0  0  0  0  0  0  0
    0.0667  -16.2765   19.3711 C   0  0  0  0  0  0  0  0  0  0  0  0
   -1.0422  -17.0819   18.9340 C   0  0  0  0  0  0  0  0  0  0  0  0
   -1.1726  -17.1635   17.5611 C   0  0  0  0  0  0  0  0  0  0  0  0
    0.0480  -16.3486   16.7112 S   0  0  0  0  0  0  0  0  0  0  0  0
    0.7799  -15.9237   18.1749 C   0  0  0  0  0  0  0  0  0  0  0  0
   -0.4639  -16.3226   21.9080 C   0  0  0  0  0  0  0  0  0  0  0  0
   -1.5817  -15.2704   23.4378 C   0  0  0  0  0  0  0  0  0  0  0  0
   -1.3721  -19.0700   23.9222 N   0  0  0  0  0  0  0  0  0  0  0  0
   -1.9996  -20.5681   23.5613 C   0  0  0  0  0  0  0  0  0  0  0  0
   -1.7631  -21.8329   22.9704 C   0  0  0  0  0  0  0  0  0  0  0  0
   -2.5417  -23.7740   22.3969 H   0  0  0  0  0  0  0  0  0  0  0  0
   -4.7622  -23.4909   23.4626 H   0  0  0  0  0  0  0  0  0  0  0  0
   -5.1108  -21.4263   24.9002 H   0  0  0  0  0  0  0  0  0  0  0  0
   -3.5594  -19.3772   26.0326 H   0  0  0  0  0  0  0  0  0  0  0  0
    0.0697  -14.4587   24.6720 H   0  0  0  0  0  0  0  0  0  0  0  0
   -1.3766  -13.8765   25.0619 H   0  0  0  0  0  0  0  0  0  0  0  0
   -0.2144  -13.4223   22.4368 H   0  0  0  0  0  0  0  0  0  0  0  0
    0.9485  -14.4779   23.1408 H   0  0  0  0  0  0  0  0  0  0  0  0
    1.4954  -15.3517   20.8256 H   0  0  0  0  0  0  0  0  0  0  0  0
   -1.7504  -17.5773   19.5889 H   0  0  0  0  0  0  0  0  0  0  0  0
   -1.9444  -17.6900   17.0172 H   0  0  0  0  0  0  0  0  0  0  0  0
    1.7009  -15.3572   18.0809 H   0  0  0  0  0  0  0  0  0  0  0  0
   -1.1171  -16.2674   20.9914 H   0  0  0  0  0  0  0  0  0  0  0  0
   -0.3930  -17.4477   21.8685 H   0  0  0  0  0  0  0  0  0  0  0  0
   -2.0970  -14.7137   22.6437 H   0  0  0  0  0  0  0  0  0  0  0  0
   -2.8047  -15.2612   23.5136 H   0  0  0  0  0  0  0  0  0  0  0  0
   -0.7850  -22.1334   22.6218 H   0  0  0  0  0  0  0  0  0  0  0  0
  1  2  2  0
  2  3  1  0
  3  4  2  0
  4  5  1  0
  5  6  1  0
  6  7  1  0
  7  8  1  0
  8  9  1  0
  9 10  1  0
 10 11  1  0
 11 12  1  0
 12 13  2  0
 13 14  1  0
 14 15  1  0
 10 16  1  0
 16 17  1  0
  6 18  2  0
 18 19  1  0
 19 20  2  0
 20  1  1  0
 19  4  1  0
 17  7  1  0
 15 11  2  0
  1 21  1  0
  2 22  1  0
  3 23  1  0
  5 24  1  0
  8 25  1  0
  8 26  1  0
  9 27  1  0
  9 28  1  0
 10 29  1  0
 12 30  1  0
 13 31  1  0
 15 32  1  0
 16 33  1  0
 16 34  1  0
 17 35  1  0
 17 36  1  0
 20 37  1  0
M  END
>  <Energy>  (214) 
1238.617123517944

>  <compound_id>  (214) 
4905

>  <target_id>  (214) 
1

>  <reference_id>  (214) 
76

>  <inspiration_ids>  (214) 
[94, 76]

>  <energy_score>  (214) 
1202.9713663424752

>  <distance_score>  (214) 
15.493296359451787

>  <path>  (214) 
/opt/xchem-fragalysis-2/maxwin/BulkDock/SCRATCH/511018/C4905-P76/C4905-P76.minimised.mol

>  <scratch_subdir>  (214) 
/opt/xchem-fragalysis-2/maxwin/BulkDock/SCRATCH/511018/C4905-P76

>  <fragmenstein_runtime>  (214) 
13.517515659332275

>  <fragmenstein_outcome>  (214) 
too moved

>  <fragmenstein_mode>  (214) 
expansion

>  <fragmenstein_error>  (214) 


$$$$
C4906-P94
     RDKit          3D

 48 51  0  0  0  0  0  0  0  0999 V2000
    3.9145  -14.2815   24.8494 C   0  0  0  0  0  0  0  0  0  0  0  0
    2.7513  -13.6699   23.6201 C   0  0  0  0  0  0  0  0  0  0  0  0
    3.5818  -12.5441   22.1823 C   0  0  0  0  0  0  0  0  0  0  0  0
    4.9822  -12.3411   20.8294 C   0  0  0  0  0  0  0  0  0  0  0  0
    5.1601  -12.8892   19.4729 C   0  0  0  0  0  0  0  0  0  0  0  0
    6.3144  -12.5155   18.7998 C   0  0  0  0  0  0  0  0  0  0  0  0
    7.2556  -11.4177   19.6793 S   0  0  0  0  0  0  0  0  0  0  0  0
    6.0964  -11.4129   20.9349 C   0  0  0  0  0  0  0  0  0  0  0  0
    0.8135  -14.1366   23.7527 N   0  0  0  0  0  0  0  0  0  0  0  0
   -0.9672  -14.5406   24.5518 C   0  0  0  0  0  0  0  0  0  0  0  0
   -1.5267  -15.8971   24.7048 C   0  0  0  0  0  0  0  0  0  0  0  0
   -1.0209  -17.7062   25.7476 C   0  0  0  0  0  0  0  0  0  0  0  0
   -2.1619  -18.2712   26.1812 C   0  0  0  0  0  0  0  0  0  0  0  0
   -2.7032  -16.9507   26.4134 N   0  0  0  0  0  0  0  0  0  0  0  0
   -3.7137  -17.0657   27.5279 C   0  0  0  0  0  0  0  0  0  0  0  0
   -5.0421  -18.0569   27.7148 N   0  0  0  0  0  0  0  0  0  0  0  0
   -6.0753  -17.2216   29.0008 C   0  0  0  0  0  0  0  0  0  0  0  0
   -7.4747  -16.9058   28.9783 C   0  0  0  0  0  0  0  0  0  0  0  0
   -7.9284  -15.7032   29.5501 C   0  0  0  0  0  0  0  0  0  0  0  0
   -7.1528  -15.0184   30.4625 C   0  0  0  0  0  0  0  0  0  0  0  0
   -5.8201  -15.3554   30.6095 C   0  0  0  0  0  0  0  0  0  0  0  0
   -5.3314  -16.3047   29.6735 C   0  0  0  0  0  0  0  0  0  0  0  0
   -3.8345  -16.3630   29.0515 N   0  0  0  0  0  0  0  0  0  0  0  0
   -2.6828  -15.7308   24.8630 C   0  0  0  0  0  0  0  0  0  0  0  0
    3.5097  -14.3926   25.8439 H   0  0  0  0  0  0  0  0  0  0  0  0
    4.3843  -15.1898   24.4568 H   0  0  0  0  0  0  0  0  0  0  0  0
    4.7307  -13.7328   25.3281 H   0  0  0  0  0  0  0  0  0  0  0  0
    2.9414  -14.5804   23.0636 H   0  0  0  0  0  0  0  0  0  0  0  0
    3.6031  -11.5598   22.6192 H   0  0  0  0  0  0  0  0  0  0  0  0
    3.2094  -13.0837   21.3341 H   0  0  0  0  0  0  0  0  0  0  0  0
    4.4265  -13.4767   18.9409 H   0  0  0  0  0  0  0  0  0  0  0  0
    6.6023  -12.8103   17.8017 H   0  0  0  0  0  0  0  0  0  0  0  0
    6.3028  -10.7518   21.7668 H   0  0  0  0  0  0  0  0  0  0  0  0
    0.8943  -13.5350   24.6078 H   0  0  0  0  0  0  0  0  0  0  0  0
   -1.2488  -13.6762   25.1926 H   0  0  0  0  0  0  0  0  0  0  0  0
   -1.7980  -14.9889   25.8982 H   0  0  0  0  0  0  0  0  0  0  0  0
   -1.3718  -15.5737   23.6349 H   0  0  0  0  0  0  0  0  0  0  0  0
   -0.6161  -17.6025   26.8130 H   0  0  0  0  0  0  0  0  0  0  0  0
   -0.2228  -18.4240   25.5995 H   0  0  0  0  0  0  0  0  0  0  0  0
   -2.4696  -18.9972   25.4791 H   0  0  0  0  0  0  0  0  0  0  0  0
   -1.8802  -18.9929   26.8940 H   0  0  0  0  0  0  0  0  0  0  0  0
   -8.1817  -17.4692   28.3859 H   0  0  0  0  0  0  0  0  0  0  0  0
   -8.9375  -15.3520   29.3413 H   0  0  0  0  0  0  0  0  0  0  0  0
   -7.5597  -14.1648   30.9980 H   0  0  0  0  0  0  0  0  0  0  0  0
   -5.1480  -14.7299   31.1880 H   0  0  0  0  0  0  0  0  0  0  0  0
   -3.2144  -15.6275   29.3742 H   0  0  0  0  0  0  0  0  0  0  0  0
   -3.1571  -15.8161   23.8264 H   0  0  0  0  0  0  0  0  0  0  0  0
   -3.7234  -15.5534   24.8716 H   0  0  0  0  0  0  0  0  0  0  0  0
  1  2  1  0
  2  3  1  0
  3  4  1  0
  4  5  1  0
  5  6  2  0
  6  7  1  0
  7  8  1  0
  2  9  1  0
  9 10  1  0
 10 11  1  0
 11 12  1  0
 12 13  1  0
 13 14  1  0
 14 15  1  0
 15 16  2  0
 16 17  1  0
 17 18  2  0
 18 19  1  0
 19 20  2  0
 20 21  1  0
 21 22  2  0
 22 23  1  0
 14 24  1  0
  8  4  2  0
 24 10  1  0
 23 15  1  0
 22 17  1  0
  1 25  1  0
  1 26  1  0
  1 27  1  0
  2 28  1  0
  3 29  1  0
  3 30  1  0
  5 31  1  0
  6 32  1  0
  8 33  1  0
  9 34  1  0
 10 35  1  0
 11 36  1  0
 11 37  1  0
 12 38  1  0
 12 39  1  0
 13 40  1  0
 13 41  1  0
 18 42  1  0
 19 43  1  0
 20 44  1  0
 21 45  1  0
 23 46  1  0
 24 47  1  0
 24 48  1  0
M  END
>  <Energy>  (215) 
1447.662369597125

>  <compound_id>  (215) 
4906

>  <target_id>  (215) 
1

>  <reference_id>  (215) 
94

>  <inspiration_ids>  (215) 
[94, 76]

>  <energy_score>  (215) 
1358.8398274483648

>  <distance_score>  (215) 
11.797667909194086

>  <path>  (215) 
/opt/xchem-fragalysis-2/maxwin/BulkDock/SCRATCH/511018/C4906-P94/C4906-P94.minimised.mol

>  <scratch_subdir>  (215) 
/opt/xchem-fragalysis-2/maxwin/BulkDock/SCRATCH/511018/C4906-P94

>  <fragmenstein_runtime>  (215) 
40.84353828430176

>  <fragmenstein_outcome>  (215) 
too moved

>  <fragmenstein_mode>  (215) 
expansion

>  <fragmenstein_error>  (215) 


$$$$
C4906-P76
     RDKit          3D

 48 51  0  0  0  0  0  0  0  0999 V2000
    7.9452  -11.7037   20.4250 C   0  0  0  0  0  0  0  0  0  0  0  0
    6.9902  -10.7213   21.1272 C   0  0  0  0  0  0  0  0  0  0  0  0
    7.3063   -9.2919   20.5171 C   0  0  0  0  0  0  0  0  0  0  0  0
    6.5108   -8.7547   19.3165 C   0  0  0  0  0  0  0  0  0  0  0  0
    5.9535   -9.5232   18.2460 C   0  0  0  0  0  0  0  0  0  0  0  0
    5.1527   -8.7833   17.3875 C   0  0  0  0  0  0  0  0  0  0  0  0
    5.0995   -7.1359   17.8194 S   0  0  0  0  0  0  0  0  0  0  0  0
    6.0678   -7.4342   19.1937 C   0  0  0  0  0  0  0  0  0  0  0  0
    7.2016  -10.8112   22.6273 N   0  0  0  0  0  0  0  0  0  0  0  0
    6.0265  -11.0012   23.5755 C   0  0  0  0  0  0  0  0  0  0  0  0
    4.1514  -11.5019   22.9683 C   0  0  0  0  0  0  0  0  0  0  0  0
    3.3005  -12.8366   23.9503 C   0  0  0  0  0  0  0  0  0  0  0  0
    4.1684  -13.8570   25.2431 C   0  0  0  0  0  0  0  0  0  0  0  0
    5.3233  -13.0173   26.2112 N   0  0  0  0  0  0  0  0  0  0  0  0
    4.5433  -13.2505   27.7269 C   0  0  0  0  0  0  0  0  0  0  0  0
    3.6713  -14.2886   27.8736 N   0  0  0  0  0  0  0  0  0  0  0  0
    2.8886  -14.1904   28.9776 C   0  0  0  0  0  0  0  0  0  0  0  0
    1.8297  -15.0163   29.4119 C   0  0  0  0  0  0  0  0  0  0  0  0
    1.0842  -14.6387   30.5253 C   0  0  0  0  0  0  0  0  0  0  0  0
    1.4175  -13.4632   31.1936 C   0  0  0  0  0  0  0  0  0  0  0  0
    2.5095  -12.6539   30.7878 C   0  0  0  0  0  0  0  0  0  0  0  0
    3.2489  -13.0481   29.6579 C   0  0  0  0  0  0  0  0  0  0  0  0
    4.3757  -12.5358   28.9551 N   0  0  0  0  0  0  0  0  0  0  0  0
    6.3114  -11.7708   25.3681 C   0  0  0  0  0  0  0  0  0  0  0  0
    7.6882  -12.7395   20.6437 H   0  0  0  0  0  0  0  0  0  0  0  0
    8.9852  -11.5387   20.7287 H   0  0  0  0  0  0  0  0  0  0  0  0
    7.8987  -11.5928   19.3369 H   0  0  0  0  0  0  0  0  0  0  0  0
    5.9821  -11.0387   20.8767 H   0  0  0  0  0  0  0  0  0  0  0  0
    8.3758   -9.2022   20.2985 H   0  0  0  0  0  0  0  0  0  0  0  0
    7.0360   -8.6089   21.3271 H   0  0  0  0  0  0  0  0  0  0  0  0
    6.1041  -10.5862   18.1144 H   0  0  0  0  0  0  0  0  0  0  0  0
    4.6100   -9.1503   16.5274 H   0  0  0  0  0  0  0  0  0  0  0  0
    6.2240   -6.6143   19.8780 H   0  0  0  0  0  0  0  0  0  0  0  0
    7.9368  -11.4794   22.8486 H   0  0  0  0  0  0  0  0  0  0  0  0
    5.9015   -9.9211   23.8113 H   0  0  0  0  0  0  0  0  0  0  0  0
    4.1435  -11.8411   21.9219 H   0  0  0  0  0  0  0  0  0  0  0  0
    3.5127  -10.6767   22.9594 H   0  0  0  0  0  0  0  0  0  0  0  0
    2.3309  -12.4520   24.2662 H   0  0  0  0  0  0  0  0  0  0  0  0
    3.0105  -13.6547   23.3063 H   0  0  0  0  0  0  0  0  0  0  0  0
    4.6067  -14.7748   24.8375 H   0  0  0  0  0  0  0  0  0  0  0  0
    3.4279  -14.1194   25.9226 H   0  0  0  0  0  0  0  0  0  0  0  0
    1.6041  -15.9207   28.8634 H   0  0  0  0  0  0  0  0  0  0  0  0
    0.2631  -15.2565   30.8708 H   0  0  0  0  0  0  0  0  0  0  0  0
    0.8402  -13.1675   32.0677 H   0  0  0  0  0  0  0  0  0  0  0  0
    2.7636  -11.7570   31.3429 H   0  0  0  0  0  0  0  0  0  0  0  0
    4.8718  -11.6932   29.1910 H   0  0  0  0  0  0  0  0  0  0  0  0
    7.3068  -12.2232   25.3065 H   0  0  0  0  0  0  0  0  0  0  0  0
    6.3794  -10.9302   26.0698 H   0  0  0  0  0  0  0  0  0  0  0  0
  1  2  1  0
  2  3  1  0
  3  4  1  0
  4  5  1  0
  5  6  2  0
  6  7  1  0
  7  8  1  0
  2  9  1  0
  9 10  1  0
 10 11  1  0
 11 12  1  0
 12 13  1  0
 13 14  1  0
 14 15  1  0
 15 16  2  0
 16 17  1  0
 17 18  2  0
 18 19  1  0
 19 20  2  0
 20 21  1  0
 21 22  2  0
 22 23  1  0
 14 24  1  0
  8  4  2  0
 24 10  1  0
 23 15  1  0
 22 17  1  0
  1 25  1  0
  1 26  1  0
  1 27  1  0
  2 28  1  0
  3 29  1  0
  3 30  1  0
  5 31  1  0
  6 32  1  0
  8 33  1  0
  9 34  1  0
 10 35  1  0
 11 36  1  0
 11 37  1  0
 12 38  1  0
 12 39  1  0
 13 40  1  0
 13 41  1  0
 18 42  1  0
 19 43  1  0
 20 44  1  0
 21 45  1  0
 23 46  1  0
 24 47  1  0
 24 48  1  0
M  END
>  <Energy>  (216) 
353.50404654979616

>  <compound_id>  (216) 
4906

>  <target_id>  (216) 
1

>  <reference_id>  (216) 
76

>  <inspiration_ids>  (216) 
[94, 76]

>  <energy_score>  (216) 
264.68150440104216

>  <distance_score>  (216) 
15.521158218606596

>  <path>  (216) 
/opt/xchem-fragalysis-2/maxwin/BulkDock/SCRATCH/511018/C4906-P76/C4906-P76.minimised.mol

>  <scratch_subdir>  (216) 
/opt/xchem-fragalysis-2/maxwin/BulkDock/SCRATCH/511018/C4906-P76

>  <fragmenstein_runtime>  (216) 
28.364632606506348

>  <fragmenstein_outcome>  (216) 
too moved

>  <fragmenstein_mode>  (216) 
expansion

>  <fragmenstein_error>  (216) 


$$$$
C4907-P94
     RDKit          3D

 41 44  0  0  0  0  0  0  0  0999 V2000
    1.8658  -12.0622   24.8579 O   0  0  0  0  0  0  0  0  0  0  0  0
    1.9870  -12.7728   23.9339 C   0  0  0  0  0  0  0  0  0  0  0  0
    0.7822  -14.1458   23.5992 N   0  0  0  0  0  0  0  0  0  0  0  0
   -0.9189  -14.6597   24.4816 C   0  0  0  0  0  0  0  0  0  0  0  0
   -2.2732  -16.0102   24.7379 C   0  0  0  0  0  0  0  0  0  0  0  0
   -2.3472  -17.4992   25.9917 C   0  0  0  0  0  0  0  0  0  0  0  0
   -3.4770  -17.1830   27.3054 N   0  0  0  0  0  0  0  0  0  0  0  0
   -5.1242  -18.1578   27.5265 C   0  0  0  0  0  0  0  0  0  0  0  0
   -5.5638  -19.5206   26.7872 N   0  0  0  0  0  0  0  0  0  0  0  0
   -6.9487  -20.2048   27.1476 C   0  0  0  0  0  0  0  0  0  0  0  0
   -7.2910  -21.8353   27.3588 C   0  0  0  0  0  0  0  0  0  0  0  0
   -8.5943  -22.6221   27.9744 C   0  0  0  0  0  0  0  0  0  0  0  0
   -9.7806  -21.7603   28.1623 C   0  0  0  0  0  0  0  0  0  0  0  0
   -9.2906  -20.0672   28.1250 C   0  0  0  0  0  0  0  0  0  0  0  0
   -8.0259  -18.8823   27.9438 C   0  0  0  0  0  0  0  0  0  0  0  0
   -6.7702  -17.5546   28.3061 N   0  0  0  0  0  0  0  0  0  0  0  0
   -2.3068  -15.6461   27.4576 C   0  0  0  0  0  0  0  0  0  0  0  0
   -1.9260  -14.4387   25.8857 C   0  0  0  0  0  0  0  0  0  0  0  0
    3.3810  -12.3317   22.7222 C   0  0  0  0  0  0  0  0  0  0  0  0
    3.8681  -12.9440   21.2662 C   0  0  0  0  0  0  0  0  0  0  0  0
    4.9890  -12.4853   20.4907 C   0  0  0  0  0  0  0  0  0  0  0  0
    5.4136  -10.8621   20.9623 S   0  0  0  0  0  0  0  0  0  0  0  0
    4.1842  -10.9283   22.3204 C   0  0  0  0  0  0  0  0  0  0  0  0
    1.0131  -14.5798   22.7191 H   0  0  0  0  0  0  0  0  0  0  0  0
   -1.2494  -14.8364   23.4571 H   0  0  0  0  0  0  0  0  0  0  0  0
   -3.2087  -15.6370   25.0312 H   0  0  0  0  0  0  0  0  0  0  0  0
   -2.9083  -15.8310   23.8618 H   0  0  0  0  0  0  0  0  0  0  0  0
   -1.4386  -17.7342   26.5827 H   0  0  0  0  0  0  0  0  0  0  0  0
   -2.3060  -18.5019   25.5779 H   0  0  0  0  0  0  0  0  0  0  0  0
   -6.4433  -22.4400   27.0325 H   0  0  0  0  0  0  0  0  0  0  0  0
   -8.8001  -23.6749   28.0358 H   0  0  0  0  0  0  0  0  0  0  0  0
  -10.7661  -22.0710   28.4916 H   0  0  0  0  0  0  0  0  0  0  0  0
  -10.0631  -20.2724   29.1482 H   0  0  0  0  0  0  0  0  0  0  0  0
   -7.0931  -16.6105   28.2143 H   0  0  0  0  0  0  0  0  0  0  0  0
   -2.4484  -15.1234   28.3915 H   0  0  0  0  0  0  0  0  0  0  0  0
   -1.4082  -16.1347   27.7339 H   0  0  0  0  0  0  0  0  0  0  0  0
   -2.6624  -13.6435   25.8773 H   0  0  0  0  0  0  0  0  0  0  0  0
   -1.1585  -13.6532   25.7994 H   0  0  0  0  0  0  0  0  0  0  0  0
    3.2137  -13.7141   20.9690 H   0  0  0  0  0  0  0  0  0  0  0  0
    5.3930  -12.9224   19.5870 H   0  0  0  0  0  0  0  0  0  0  0  0
    3.9673   -9.9277   22.6534 H   0  0  0  0  0  0  0  0  0  0  0  0
  1  2  2  0
  2  3  1  0
  3  4  1  0
  4  5  1  0
  5  6  1  0
  6  7  1  0
  7  8  1  0
  8  9  2  0
  9 10  1  0
 10 11  2  0
 11 12  1  0
 12 13  2  0
 13 14  1  0
 14 15  2  0
 15 16  1  0
  7 17  1  0
 17 18  1  0
  2 19  1  0
 19 20  1  0
 20 21  2  0
 21 22  1  0
 22 23  1  0
 18  4  1  0
 23 19  2  0
 16  8  1  0
 15 10  1  0
  3 24  1  0
  4 25  1  0
  5 26  1  0
  5 27  1  0
  6 28  1  0
  6 29  1  0
 11 30  1  0
 12 31  1  0
 13 32  1  0
 14 33  1  0
 16 34  1  0
 17 35  1  0
 17 36  1  0
 18 37  1  0
 18 38  1  0
 20 39  1  0
 21 40  1  0
 23 41  1  0
M  END
>  <Energy>  (217) 
1393.7056429975955

>  <compound_id>  (217) 
4907

>  <target_id>  (217) 
1

>  <reference_id>  (217) 
94

>  <inspiration_ids>  (217) 
[94, 76]

>  <energy_score>  (217) 
1375.1430520280155

>  <distance_score>  (217) 
11.172763429930585

>  <path>  (217) 
/opt/xchem-fragalysis-2/maxwin/BulkDock/SCRATCH/511018/C4907-P94/C4907-P94.minimised.mol

>  <scratch_subdir>  (217) 
/opt/xchem-fragalysis-2/maxwin/BulkDock/SCRATCH/511018/C4907-P94

>  <fragmenstein_runtime>  (217) 
30.459924936294556

>  <fragmenstein_outcome>  (217) 
too moved

>  <fragmenstein_mode>  (217) 
expansion

>  <fragmenstein_error>  (217) 


$$$$
C4907-P76
     RDKit          3D

 41 44  0  0  0  0  0  0  0  0999 V2000
   -0.7740   -9.6873   22.1009 O   0  0  0  0  0  0  0  0  0  0  0  0
   -1.3171  -10.5273   21.4391 C   0  0  0  0  0  0  0  0  0  0  0  0
   -1.3761  -12.0451   21.6214 N   0  0  0  0  0  0  0  0  0  0  0  0
   -0.4235  -13.2965   23.0110 C   0  0  0  0  0  0  0  0  0  0  0  0
   -1.1469  -14.7880   22.8261 C   0  0  0  0  0  0  0  0  0  0  0  0
   -2.5183  -15.4304   24.1691 C   0  0  0  0  0  0  0  0  0  0  0  0
   -2.7225  -16.2595   25.7189 N   0  0  0  0  0  0  0  0  0  0  0  0
   -3.0065  -17.6162   26.9256 C   0  0  0  0  0  0  0  0  0  0  0  0
   -2.7815  -19.1980   26.2797 N   0  0  0  0  0  0  0  0  0  0  0  0
   -4.4563  -20.0159   25.6913 C   0  0  0  0  0  0  0  0  0  0  0  0
   -4.9947  -21.1682   25.0378 C   0  0  0  0  0  0  0  0  0  0  0  0
   -6.0206  -22.1717   25.1740 C   0  0  0  0  0  0  0  0  0  0  0  0
   -6.5385  -22.1188   26.4342 C   0  0  0  0  0  0  0  0  0  0  0  0
   -6.4596  -20.8166   26.9662 C   0  0  0  0  0  0  0  0  0  0  0  0
   -5.4896  -19.6742   26.6096 C   0  0  0  0  0  0  0  0  0  0  0  0
   -4.7618  -18.2895   27.5137 N   0  0  0  0  0  0  0  0  0  0  0  0
   -2.1672  -14.5884   26.1535 C   0  0  0  0  0  0  0  0  0  0  0  0
   -1.0776  -13.7979   24.8858 C   0  0  0  0  0  0  0  0  0  0  0  0
   -1.9664   -9.9472   20.2166 C   0  0  0  0  0  0  0  0  0  0  0  0
   -2.5519  -10.5641   19.0661 C   0  0  0  0  0  0  0  0  0  0  0  0
   -2.6462   -9.7021   17.9870 C   0  0  0  0  0  0  0  0  0  0  0  0
   -2.1130   -8.1208   18.3494 S   0  0  0  0  0  0  0  0  0  0  0  0
   -1.7872   -8.5774   19.9595 C   0  0  0  0  0  0  0  0  0  0  0  0
   -1.8562  -12.4609   20.8245 H   0  0  0  0  0  0  0  0  0  0  0  0
    0.1172  -12.3119   22.8769 H   0  0  0  0  0  0  0  0  0  0  0  0
   -1.7669  -14.6888   21.8289 H   0  0  0  0  0  0  0  0  0  0  0  0
   -0.4733  -15.4658   22.2228 H   0  0  0  0  0  0  0  0  0  0  0  0
   -3.4470  -15.4981   23.6566 H   0  0  0  0  0  0  0  0  0  0  0  0
   -1.5828  -15.7414   24.4419 H   0  0  0  0  0  0  0  0  0  0  0  0
   -4.6517  -21.4706   26.0286 H   0  0  0  0  0  0  0  0  0  0  0  0
   -6.2820  -22.8837   24.4053 H   0  0  0  0  0  0  0  0  0  0  0  0
   -7.3110  -22.7646   26.7901 H   0  0  0  0  0  0  0  0  0  0  0  0
   -7.2831  -20.6352   27.6087 H   0  0  0  0  0  0  0  0  0  0  0  0
   -5.4853  -17.9467   28.1191 H   0  0  0  0  0  0  0  0  0  0  0  0
   -2.8535  -13.7663   26.2894 H   0  0  0  0  0  0  0  0  0  0  0  0
   -1.7693  -14.6347   27.1875 H   0  0  0  0  0  0  0  0  0  0  0  0
   -1.0404  -13.0244   25.7309 H   0  0  0  0  0  0  0  0  0  0  0  0
   -0.1028  -14.2965   24.6861 H   0  0  0  0  0  0  0  0  0  0  0  0
   -2.7827  -11.6133   18.9778 H   0  0  0  0  0  0  0  0  0  0  0  0
   -2.9914   -9.9338   16.9897 H   0  0  0  0  0  0  0  0  0  0  0  0
   -1.3412   -7.8513   20.6271 H   0  0  0  0  0  0  0  0  0  0  0  0
  1  2  2  0
  2  3  1  0
  3  4  1  0
  4  5  1  0
  5  6  1  0
  6  7  1  0
  7  8  1  0
  8  9  2  0
  9 10  1  0
 10 11  2  0
 11 12  1  0
 12 13  2  0
 13 14  1  0
 14 15  2  0
 15 16  1  0
  7 17  1  0
 17 18  1  0
  2 19  1  0
 19 20  1  0
 20 21  2  0
 21 22  1  0
 22 23  1  0
 18  4  1  0
 23 19  2  0
 16  8  1  0
 15 10  1  0
  3 24  1  0
  4 25  1  0
  5 26  1  0
  5 27  1  0
  6 28  1  0
  6 29  1  0
 11 30  1  0
 12 31  1  0
 13 32  1  0
 14 33  1  0
 16 34  1  0
 17 35  1  0
 17 36  1  0
 18 37  1  0
 18 38  1  0
 20 39  1  0
 21 40  1  0
 23 41  1  0
M  END
>  <Energy>  (218) 
1236.5654147841587

>  <compound_id>  (218) 
4907

>  <target_id>  (218) 
1

>  <reference_id>  (218) 
76

>  <inspiration_ids>  (218) 
[94, 76]

>  <energy_score>  (218) 
1218.0028238145487

>  <distance_score>  (218) 
13.299205154743595

>  <path>  (218) 
/opt/xchem-fragalysis-2/maxwin/BulkDock/SCRATCH/511018/C4907-P76/C4907-P76.minimised.mol

>  <scratch_subdir>  (218) 
/opt/xchem-fragalysis-2/maxwin/BulkDock/SCRATCH/511018/C4907-P76

>  <fragmenstein_runtime>  (218) 
28.670644521713257

>  <fragmenstein_outcome>  (218) 
too moved

>  <fragmenstein_mode>  (218) 
expansion

>  <fragmenstein_error>  (218) 


$$$$
C4908-P94
     RDKit          3D

 35 37  0  0  0  0  0  0  0  0999 V2000
   -0.5787   -8.5329   30.0797 O   0  0  0  0  0  0  0  0  0  0  0  0
    0.0297   -9.5682   30.1311 C   0  0  0  0  0  0  0  0  0  0  0  0
    1.3818   -9.5784   29.2778 C   0  0  0  0  0  0  0  0  0  0  0  0
    1.7449   -8.5494   28.4375 C   0  0  0  0  0  0  0  0  0  0  0  0
    2.9322   -8.2917   27.6085 C   0  0  0  0  0  0  0  0  0  0  0  0
    2.9603   -7.3197   26.5326 C   0  0  0  0  0  0  0  0  0  0  0  0
    4.1827   -7.2278   25.8935 C   0  0  0  0  0  0  0  0  0  0  0  0
    5.3326   -8.2798   26.5886 S   0  0  0  0  0  0  0  0  0  0  0  0
    4.1854   -8.8586   27.7433 C   0  0  0  0  0  0  0  0  0  0  0  0
   -0.2692  -10.8162   30.8416 N   0  0  0  0  0  0  0  0  0  0  0  0
   -1.3739  -11.1634   31.8061 C   0  0  0  0  0  0  0  0  0  0  0  0
   -1.9980  -12.6124   31.8748 C   0  0  0  0  0  0  0  0  0  0  0  0
   -1.5370  -13.6738   32.5349 N   0  0  0  0  0  0  0  0  0  0  0  0
   -2.5149  -14.6610   32.4821 C   0  0  0  0  0  0  0  0  0  0  0  0
   -2.5286  -15.9568   33.0319 C   0  0  0  0  0  0  0  0  0  0  0  0
   -3.6914  -16.7324   32.8897 C   0  0  0  0  0  0  0  0  0  0  0  0
   -3.7204  -18.0579   33.4985 N   0  0  0  0  0  0  0  0  0  0  0  0
   -4.7943  -18.4391   33.9802 O   0  0  0  0  0  0  0  0  0  0  0  0
   -2.6622  -18.7034   33.5103 O   0  0  0  0  0  0  0  0  0  0  0  0
   -4.8195  -16.2517   32.2190 C   0  0  0  0  0  0  0  0  0  0  0  0
   -4.8029  -14.9678   31.6482 C   0  0  0  0  0  0  0  0  0  0  0  0
   -3.6299  -14.2047   31.7958 C   0  0  0  0  0  0  0  0  0  0  0  0
   -3.2609  -12.9380   31.3705 N   0  0  0  0  0  0  0  0  0  0  0  0
    2.0238  -10.4350   29.4378 H   0  0  0  0  0  0  0  0  0  0  0  0
    1.0077   -7.7443   28.3696 H   0  0  0  0  0  0  0  0  0  0  0  0
    2.1076   -6.7189   26.2343 H   0  0  0  0  0  0  0  0  0  0  0  0
    4.4484   -6.5906   25.0604 H   0  0  0  0  0  0  0  0  0  0  0  0
    4.5131   -9.5886   28.4707 H   0  0  0  0  0  0  0  0  0  0  0  0
    0.4229  -11.5135   30.5931 H   0  0  0  0  0  0  0  0  0  0  0  0
   -0.9561  -10.9598   32.7991 H   0  0  0  0  0  0  0  0  0  0  0  0
   -2.1792  -10.4398   31.6476 H   0  0  0  0  0  0  0  0  0  0  0  0
   -1.6568  -16.3165   33.5686 H   0  0  0  0  0  0  0  0  0  0  0  0
   -5.7069  -16.8756   32.1430 H   0  0  0  0  0  0  0  0  0  0  0  0
   -5.6621  -14.5709   31.1203 H   0  0  0  0  0  0  0  0  0  0  0  0
   -3.8244  -12.3355   30.7893 H   0  0  0  0  0  0  0  0  0  0  0  0
  1  2  2  0
  2  3  1  0
  3  4  2  3
  4  5  1  0
  5  6  1  0
  6  7  2  0
  7  8  1  0
  8  9  1  0
  2 10  1  0
 10 11  1  0
 11 12  1  0
 12 13  2  0
 13 14  1  0
 14 15  2  0
 15 16  1  0
 16 17  1  0
 17 18  2  0
 17 19  1  0
 16 20  2  0
 20 21  1  0
 21 22  2  0
 22 23  1  0
  9  5  2  0
 23 12  1  0
 22 14  1  0
  3 24  1  0
  4 25  1  0
  6 26  1  0
  7 27  1  0
  9 28  1  0
 10 29  1  0
 11 30  1  0
 11 31  1  0
 15 32  1  0
 20 33  1  0
 21 34  1  0
 23 35  1  0
M  CHG  2  17   1  19  -1
M  END
>  <Energy>  (219) 
28.002995633548089

>  <compound_id>  (219) 
4908

>  <target_id>  (219) 
1

>  <reference_id>  (219) 
94

>  <inspiration_ids>  (219) 
[94, 76]

>  <energy_score>  (219) 
-10.987452941943957

>  <distance_score>  (219) 
14.55357580730036

>  <path>  (219) 
/opt/xchem-fragalysis-2/maxwin/BulkDock/SCRATCH/511018/C4908-P94/C4908-P94.minimised.mol

>  <scratch_subdir>  (219) 
/opt/xchem-fragalysis-2/maxwin/BulkDock/SCRATCH/511018/C4908-P94

>  <fragmenstein_runtime>  (219) 
36.72546982765198

>  <fragmenstein_outcome>  (219) 
too moved

>  <fragmenstein_mode>  (219) 
expansion

>  <fragmenstein_error>  (219) 


$$$$
C4908-P76
     RDKit          3D

 35 37  0  0  0  0  0  0  0  0999 V2000
   -6.1269  -12.9191   23.3365 O   0  0  0  0  0  0  0  0  0  0  0  0
   -5.8216  -12.3755   24.3662 C   0  0  0  0  0  0  0  0  0  0  0  0
   -4.2436  -11.1729   24.0228 C   0  0  0  0  0  0  0  0  0  0  0  0
   -3.7026  -10.1270   22.7542 C   0  0  0  0  0  0  0  0  0  0  0  0
   -3.0182   -9.9881   21.3801 C   0  0  0  0  0  0  0  0  0  0  0  0
   -2.9848  -10.7730   20.1960 C   0  0  0  0  0  0  0  0  0  0  0  0
   -2.4523  -10.0957   19.1100 C   0  0  0  0  0  0  0  0  0  0  0  0
   -1.8982   -8.5251   19.5110 S   0  0  0  0  0  0  0  0  0  0  0  0
   -2.2642   -8.8186   21.1531 C   0  0  0  0  0  0  0  0  0  0  0  0
   -6.7409  -12.8793   26.0145 N   0  0  0  0  0  0  0  0  0  0  0  0
   -8.1143  -14.3288   26.4120 C   0  0  0  0  0  0  0  0  0  0  0  0
   -9.1134  -15.7500   27.4649 C   0  0  0  0  0  0  0  0  0  0  0  0
   -9.0110  -17.2257   27.9321 N   0  0  0  0  0  0  0  0  0  0  0  0
  -10.4190  -18.0614   28.6787 C   0  0  0  0  0  0  0  0  0  0  0  0
  -10.7342  -19.9957   29.3439 C   0  0  0  0  0  0  0  0  0  0  0  0
  -11.9364  -20.6295   29.3140 C   0  0  0  0  0  0  0  0  0  0  0  0
  -12.2097  -21.9907   29.6549 N   0  0  0  0  0  0  0  0  0  0  0  0
  -11.5490  -22.8576   29.0735 O   0  0  0  0  0  0  0  0  0  0  0  0
  -13.0385  -22.1858   30.5530 O   0  0  0  0  0  0  0  0  0  0  0  0
  -12.6969  -19.5110   29.0092 C   0  0  0  0  0  0  0  0  0  0  0  0
  -12.3866  -17.7356   28.6109 C   0  0  0  0  0  0  0  0  0  0  0  0
  -11.2214  -17.0134   28.4426 C   0  0  0  0  0  0  0  0  0  0  0  0
  -10.6409  -15.7735   27.8407 N   0  0  0  0  0  0  0  0  0  0  0  0
   -3.9893  -10.1635   24.1334 H   0  0  0  0  0  0  0  0  0  0  0  0
   -3.2648   -9.1918   23.1363 H   0  0  0  0  0  0  0  0  0  0  0  0
   -3.4520  -11.7364   20.0829 H   0  0  0  0  0  0  0  0  0  0  0  0
   -2.3710  -10.4466   18.0921 H   0  0  0  0  0  0  0  0  0  0  0  0
   -2.0299   -8.0308   21.8567 H   0  0  0  0  0  0  0  0  0  0  0  0
   -6.4235  -12.2665   26.7733 H   0  0  0  0  0  0  0  0  0  0  0  0
   -7.7972  -15.0310   25.6419 H   0  0  0  0  0  0  0  0  0  0  0  0
   -7.8030  -14.1020   27.4471 H   0  0  0  0  0  0  0  0  0  0  0  0
  -10.0626  -20.7982   29.1852 H   0  0  0  0  0  0  0  0  0  0  0  0
  -13.7428  -19.7842   29.1526 H   0  0  0  0  0  0  0  0  0  0  0  0
  -13.2015  -17.1234   28.1821 H   0  0  0  0  0  0  0  0  0  0  0  0
  -11.2130  -14.9943   27.5640 H   0  0  0  0  0  0  0  0  0  0  0  0
  1  2  2  0
  2  3  1  0
  3  4  2  3
  4  5  1  0
  5  6  1  0
  6  7  2  0
  7  8  1  0
  8  9  1  0
  2 10  1  0
 10 11  1  0
 11 12  1  0
 12 13  2  0
 13 14  1  0
 14 15  2  0
 15 16  1  0
 16 17  1  0
 17 18  2  0
 17 19  1  0
 16 20  2  0
 20 21  1  0
 21 22  2  0
 22 23  1  0
  9  5  2  0
 23 12  1  0
 22 14  1  0
  3 24  1  0
  4 25  1  0
  6 26  1  0
  7 27  1  0
  9 28  1  0
 10 29  1  0
 11 30  1  0
 11 31  1  0
 15 32  1  0
 20 33  1  0
 21 34  1  0
 23 35  1  0
M  CHG  2  17   1  19  -1
M  END
>  <Energy>  (220) 
1035.1479475078345

>  <compound_id>  (220) 
4908

>  <target_id>  (220) 
1

>  <reference_id>  (220) 
76

>  <inspiration_ids>  (220) 
[94, 76]

>  <energy_score>  (220) 
996.1574989323442

>  <distance_score>  (220) 
13.204819258205735

>  <path>  (220) 
/opt/xchem-fragalysis-2/maxwin/BulkDock/SCRATCH/511018/C4908-P76/C4908-P76.minimised.mol

>  <scratch_subdir>  (220) 
/opt/xchem-fragalysis-2/maxwin/BulkDock/SCRATCH/511018/C4908-P76

>  <fragmenstein_runtime>  (220) 
21.925736665725708

>  <fragmenstein_outcome>  (220) 
too moved

>  <fragmenstein_mode>  (220) 
expansion

>  <fragmenstein_error>  (220) 


$$$$
C4909-P94
     RDKit          3D

 35 37  0  0  0  0  0  0  0  0999 V2000
    1.8133  -12.4858   23.7413 O   0  0  0  0  0  0  0  0  0  0  0  0
    1.9084  -13.1039   24.7646 C   0  0  0  0  0  0  0  0  0  0  0  0
    0.3922  -13.3485   25.9008 N   0  0  0  0  0  0  0  0  0  0  0  0
   -1.6267  -12.8458   25.6189 C   0  0  0  0  0  0  0  0  0  0  0  0
   -3.3806  -12.3958   26.7276 C   0  0  0  0  0  0  0  0  0  0  0  0
   -5.4128  -12.1382   27.2328 C   0  0  0  0  0  0  0  0  0  0  0  0
   -6.7588  -13.0279   26.9153 N   0  0  0  0  0  0  0  0  0  0  0  0
   -7.5362  -12.8216   25.7910 C   0  0  0  0  0  0  0  0  0  0  0  0
   -8.3567  -13.8207   25.5535 N   0  0  0  0  0  0  0  0  0  0  0  0
   -8.2115  -14.6643   26.6168 C   0  0  0  0  0  0  0  0  0  0  0  0
   -8.7585  -15.9425   26.7964 C   0  0  0  0  0  0  0  0  0  0  0  0
   -8.3945  -16.6594   27.9291 C   0  0  0  0  0  0  0  0  0  0  0  0
   -7.6271  -16.0636   28.9264 C   0  0  0  0  0  0  0  0  0  0  0  0
   -7.1903  -14.7384   28.8229 C   0  0  0  0  0  0  0  0  0  0  0  0
   -7.3701  -14.1037   27.5842 C   0  0  0  0  0  0  0  0  0  0  0  0
    3.6109  -13.8431   24.8522 C   0  0  0  0  0  0  0  0  0  0  0  0
    4.3666  -13.7015   23.5554 C   0  0  0  0  0  0  0  0  0  0  0  0
    5.7026  -14.0121   23.6096 C   0  0  0  0  0  0  0  0  0  0  0  0
    6.1305  -14.5862   25.1487 S   0  0  0  0  0  0  0  0  0  0  0  0
    4.5084  -14.4647   25.7442 C   0  0  0  0  0  0  0  0  0  0  0  0
    0.6822  -13.8064   26.7286 H   0  0  0  0  0  0  0  0  0  0  0  0
   -1.8664  -11.8026   25.6280 H   0  0  0  0  0  0  0  0  0  0  0  0
   -1.9555  -13.8647   25.4128 H   0  0  0  0  0  0  0  0  0  0  0  0
   -3.3075  -13.4248   26.6365 H   0  0  0  0  0  0  0  0  0  0  0  0
   -3.1915  -12.1608   27.7738 H   0  0  0  0  0  0  0  0  0  0  0  0
   -6.0011  -11.2223   26.9845 H   0  0  0  0  0  0  0  0  0  0  0  0
   -5.5482  -12.0703   28.3478 H   0  0  0  0  0  0  0  0  0  0  0  0
   -7.3968  -11.9610   25.1503 H   0  0  0  0  0  0  0  0  0  0  0  0
   -9.3806  -16.3731   26.0224 H   0  0  0  0  0  0  0  0  0  0  0  0
   -8.7153  -17.6841   28.0246 H   0  0  0  0  0  0  0  0  0  0  0  0
   -7.3301  -16.6384   29.8020 H   0  0  0  0  0  0  0  0  0  0  0  0
   -6.5921  -14.2969   29.6131 H   0  0  0  0  0  0  0  0  0  0  0  0
    3.9019  -13.3053   22.6629 H   0  0  0  0  0  0  0  0  0  0  0  0
    6.4340  -13.9358   22.8171 H   0  0  0  0  0  0  0  0  0  0  0  0
    4.3436  -14.7422   26.7760 H   0  0  0  0  0  0  0  0  0  0  0  0
  1  2  2  0
  2  3  1  0
  3  4  1  0
  4  5  1  0
  5  6  1  0
  6  7  1  0
  7  8  1  0
  8  9  2  0
  9 10  1  0
 10 11  2  0
 11 12  1  0
 12 13  2  0
 13 14  1  0
 14 15  2  0
  2 16  1  0
 16 17  1  0
 17 18  2  0
 18 19  1  0
 19 20  1  0
 15  7  1  0
 20 16  2  0
 15 10  1  0
  3 21  1  0
  4 22  1  0
  4 23  1  0
  5 24  1  0
  5 25  1  0
  6 26  1  0
  6 27  1  0
  8 28  1  0
 11 29  1  0
 12 30  1  0
 13 31  1  0
 14 32  1  0
 17 33  1  0
 18 34  1  0
 20 35  1  0
M  END
>  <Energy>  (221) 
608.6722256796927

>  <compound_id>  (221) 
4909

>  <target_id>  (221) 
1

>  <reference_id>  (221) 
94

>  <inspiration_ids>  (221) 
[94, 76]

>  <energy_score>  (221) 
586.157460513452

>  <distance_score>  (221) 
14.573154030552777

>  <path>  (221) 
/opt/xchem-fragalysis-2/maxwin/BulkDock/SCRATCH/511018/C4909-P94/C4909-P94.minimised.mol

>  <scratch_subdir>  (221) 
/opt/xchem-fragalysis-2/maxwin/BulkDock/SCRATCH/511018/C4909-P94

>  <fragmenstein_runtime>  (221) 
26.018473148345947

>  <fragmenstein_outcome>  (221) 
too moved

>  <fragmenstein_mode>  (221) 
expansion

>  <fragmenstein_error>  (221) 


$$$$
C4909-P76
     RDKit          3D

 35 37  0  0  0  0  0  0  0  0999 V2000
   -0.9331  -17.5844   29.8292 O   0  0  0  0  0  0  0  0  0  0  0  0
   -1.3503  -16.5568   30.2784 C   0  0  0  0  0  0  0  0  0  0  0  0
   -2.5814  -16.2685   30.9925 N   0  0  0  0  0  0  0  0  0  0  0  0
   -3.7607  -17.1355   31.3057 C   0  0  0  0  0  0  0  0  0  0  0  0
   -3.6926  -18.2703   32.3897 C   0  0  0  0  0  0  0  0  0  0  0  0
   -5.0673  -19.0070   32.6268 C   0  0  0  0  0  0  0  0  0  0  0  0
   -5.0897  -20.2953   33.3346 N   0  0  0  0  0  0  0  0  0  0  0  0
   -4.1103  -21.2550   33.2564 C   0  0  0  0  0  0  0  0  0  0  0  0
   -4.5374  -22.4484   33.6101 N   0  0  0  0  0  0  0  0  0  0  0  0
   -5.8475  -22.2691   33.9663 C   0  0  0  0  0  0  0  0  0  0  0  0
   -6.8070  -23.2325   34.3248 C   0  0  0  0  0  0  0  0  0  0  0  0
   -8.1006  -22.8145   34.6487 C   0  0  0  0  0  0  0  0  0  0  0  0
   -8.4158  -21.4572   34.6636 C   0  0  0  0  0  0  0  0  0  0  0  0
   -7.4628  -20.4825   34.3285 C   0  0  0  0  0  0  0  0  0  0  0  0
   -6.1923  -20.9172   33.9187 C   0  0  0  0  0  0  0  0  0  0  0  0
   -0.4817  -15.3217   29.9529 C   0  0  0  0  0  0  0  0  0  0  0  0
    0.9500  -15.3799   29.6260 C   0  0  0  0  0  0  0  0  0  0  0  0
    1.5028  -14.1922   29.1816 C   0  0  0  0  0  0  0  0  0  0  0  0
    0.3400  -12.9488   29.1350 S   0  0  0  0  0  0  0  0  0  0  0  0
   -0.8941  -14.0104   29.7298 C   0  0  0  0  0  0  0  0  0  0  0  0
   -2.5682  -15.3038   31.2973 H   0  0  0  0  0  0  0  0  0  0  0  0
   -4.0341  -17.6023   30.3522 H   0  0  0  0  0  0  0  0  0  0  0  0
   -4.5651  -16.4425   31.5761 H   0  0  0  0  0  0  0  0  0  0  0  0
   -2.9281  -18.9841   32.0657 H   0  0  0  0  0  0  0  0  0  0  0  0
   -3.3437  -17.8482   33.3392 H   0  0  0  0  0  0  0  0  0  0  0  0
   -5.7427  -18.3328   33.1642 H   0  0  0  0  0  0  0  0  0  0  0  0
   -5.4886  -19.2171   31.6408 H   0  0  0  0  0  0  0  0  0  0  0  0
   -3.1183  -21.0503   32.8784 H   0  0  0  0  0  0  0  0  0  0  0  0
   -6.5366  -24.2819   34.3357 H   0  0  0  0  0  0  0  0  0  0  0  0
   -8.8549  -23.5507   34.9115 H   0  0  0  0  0  0  0  0  0  0  0  0
   -9.4217  -21.1404   34.9292 H   0  0  0  0  0  0  0  0  0  0  0  0
   -7.7357  -19.4326   34.3019 H   0  0  0  0  0  0  0  0  0  0  0  0
    1.5171  -16.3032   29.6801 H   0  0  0  0  0  0  0  0  0  0  0  0
    2.5210  -14.0149   28.8637 H   0  0  0  0  0  0  0  0  0  0  0  0
   -1.8912  -13.6075   29.8295 H   0  0  0  0  0  0  0  0  0  0  0  0
  1  2  2  0
  2  3  1  0
  3  4  1  0
  4  5  1  0
  5  6  1  0
  6  7  1  0
  7  8  1  0
  8  9  2  0
  9 10  1  0
 10 11  2  0
 11 12  1  0
 12 13  2  0
 13 14  1  0
 14 15  2  0
  2 16  1  0
 16 17  1  0
 17 18  2  0
 18 19  1  0
 19 20  1  0
 15  7  1  0
 20 16  2  0
 15 10  1  0
  3 21  1  0
  4 22  1  0
  4 23  1  0
  5 24  1  0
  5 25  1  0
  6 26  1  0
  6 27  1  0
  8 28  1  0
 11 29  1  0
 12 30  1  0
 13 31  1  0
 14 32  1  0
 17 33  1  0
 18 34  1  0
 20 35  1  0
M  END
>  <Energy>  (222) 
20.622803585910074

>  <compound_id>  (222) 
4909

>  <target_id>  (222) 
1

>  <reference_id>  (222) 
76

>  <inspiration_ids>  (222) 
[94, 76]

>  <energy_score>  (222) 
-1.891961580327802

>  <distance_score>  (222) 
15.615684784647913

>  <path>  (222) 
/opt/xchem-fragalysis-2/maxwin/BulkDock/SCRATCH/511018/C4909-P76/C4909-P76.minimised.mol

>  <scratch_subdir>  (222) 
/opt/xchem-fragalysis-2/maxwin/BulkDock/SCRATCH/511018/C4909-P76

>  <fragmenstein_runtime>  (222) 
16.1019389629364

>  <fragmenstein_outcome>  (222) 
too moved

>  <fragmenstein_mode>  (222) 
expansion

>  <fragmenstein_error>  (222) 


$$$$
C4910-P94
     RDKit          3D

 47 50  0  0  0  0  0  0  0  0999 V2000
   -1.0485  -10.8582   21.8330 O   0  0  0  0  0  0  0  0  0  0  0  0
   -1.4401   -9.9311   22.3878 C   0  0  0  0  0  0  0  0  0  0  0  0
   -2.4871  -10.1790   23.9735 N   0  0  0  0  0  0  0  0  0  0  0  0
   -2.9515  -11.9298   25.0439 C   0  0  0  0  0  0  0  0  0  0  0  0
   -2.2904  -13.8031   25.6933 C   0  0  0  0  0  0  0  0  0  0  0  0
   -2.0329  -14.9393   27.3818 C   0  0  0  0  0  0  0  0  0  0  0  0
   -2.4727  -15.8655   28.6237 N   0  0  0  0  0  0  0  0  0  0  0  0
   -2.6791  -15.4723   29.9480 C   0  0  0  0  0  0  0  0  0  0  0  0
   -3.2534  -16.3927   30.6916 N   0  0  0  0  0  0  0  0  0  0  0  0
   -3.2096  -17.5281   29.9431 C   0  0  0  0  0  0  0  0  0  0  0  0
   -3.6234  -18.8252   30.3000 C   0  0  0  0  0  0  0  0  0  0  0  0
   -3.3163  -19.8865   29.4522 C   0  0  0  0  0  0  0  0  0  0  0  0
   -2.6226  -19.6549   28.2727 C   0  0  0  0  0  0  0  0  0  0  0  0
   -2.2406  -18.3554   27.8885 C   0  0  0  0  0  0  0  0  0  0  0  0
   -2.5909  -17.2761   28.7100 C   0  0  0  0  0  0  0  0  0  0  0  0
   -1.1173   -8.6313   22.0861 N   0  0  0  0  0  0  0  0  0  0  0  0
    0.0215   -8.2207   22.8355 C   0  0  0  0  0  0  0  0  0  0  0  0
    1.2505   -8.3476   22.1492 C   0  0  0  0  0  0  0  0  0  0  0  0
    0.8274   -7.1487   21.5655 C   0  0  0  0  0  0  0  0  0  0  0  0
   -0.1432   -7.9250   20.7313 C   0  0  0  0  0  0  0  0  0  0  0  0
    1.2594   -8.0402   19.4846 C   0  0  0  0  0  0  0  0  0  0  0  0
    1.5710   -8.6672   18.2909 C   0  0  0  0  0  0  0  0  0  0  0  0
    2.7292   -8.3925   17.6176 C   0  0  0  0  0  0  0  0  0  0  0  0
    4.3788   -7.0639   18.0766 S   0  0  0  0  0  0  0  0  0  0  0  0
    2.4536   -6.7987   19.3259 C   0  0  0  0  0  0  0  0  0  0  0  0
   -2.8264   -9.2632   24.2949 H   0  0  0  0  0  0  0  0  0  0  0  0
   -3.9444  -12.1157   24.6593 H   0  0  0  0  0  0  0  0  0  0  0  0
   -2.7688  -11.6363   26.0764 H   0  0  0  0  0  0  0  0  0  0  0  0
   -2.3635  -14.7272   25.0591 H   0  0  0  0  0  0  0  0  0  0  0  0
   -1.2652  -13.6312   25.4178 H   0  0  0  0  0  0  0  0  0  0  0  0
   -1.0243  -14.8190   27.7171 H   0  0  0  0  0  0  0  0  0  0  0  0
   -2.1713  -15.8627   26.8954 H   0  0  0  0  0  0  0  0  0  0  0  0
   -2.5292  -14.4611   30.2865 H   0  0  0  0  0  0  0  0  0  0  0  0
   -4.1344  -18.9927   31.2426 H   0  0  0  0  0  0  0  0  0  0  0  0
   -3.5902  -20.8941   29.7353 H   0  0  0  0  0  0  0  0  0  0  0  0
   -2.3845  -20.4883   27.6167 H   0  0  0  0  0  0  0  0  0  0  0  0
   -1.7305  -18.2116   26.9448 H   0  0  0  0  0  0  0  0  0  0  0  0
    0.2610   -8.6393   23.7498 H   0  0  0  0  0  0  0  0  0  0  0  0
   -0.2257   -7.3688   23.4878 H   0  0  0  0  0  0  0  0  0  0  0  0
    2.1466   -8.3379   22.7525 H   0  0  0  0  0  0  0  0  0  0  0  0
    1.2961   -9.2393   21.5062 H   0  0  0  0  0  0  0  0  0  0  0  0
    1.4674   -6.4862   21.0499 H   0  0  0  0  0  0  0  0  0  0  0  0
    0.5993   -6.3231   22.2651 H   0  0  0  0  0  0  0  0  0  0  0  0
   -0.3174   -8.8992   20.2942 H   0  0  0  0  0  0  0  0  0  0  0  0
    0.7157   -8.9135   17.7233 H   0  0  0  0  0  0  0  0  0  0  0  0
    2.7262   -8.2695   16.5554 H   0  0  0  0  0  0  0  0  0  0  0  0
    2.5517   -5.8464   19.8712 H   0  0  0  0  0  0  0  0  0  0  0  0
  1  2  2  0
  2  3  1  0
  3  4  1  0
  4  5  1  0
  5  6  1  0
  6  7  1  0
  7  8  1  0
  8  9  2  0
  9 10  1  0
 10 11  2  0
 11 12  1  0
 12 13  2  0
 13 14  1  0
 14 15  2  0
  2 16  1  0
 16 17  1  0
 17 18  1  0
 18 19  1  0
 19 20  1  0
 20 21  1  0
 21 22  1  0
 22 23  2  0
 23 24  1  0
 24 25  1  0
 15  7  1  0
 20 16  1  0
 25 21  2  0
 15 10  1  0
  3 26  1  0
  4 27  1  0
  4 28  1  0
  5 29  1  0
  5 30  1  0
  6 31  1  0
  6 32  1  0
  8 33  1  0
 11 34  1  0
 12 35  1  0
 13 36  1  0
 14 37  1  0
 17 38  1  0
 17 39  1  0
 18 40  1  0
 18 41  1  0
 19 42  1  0
 19 43  1  0
 20 44  1  0
 22 45  1  0
 23 46  1  0
 25 47  1  0
M  END
>  <Energy>  (223) 
910.23613314586726

>  <compound_id>  (223) 
4910

>  <target_id>  (223) 
1

>  <reference_id>  (223) 
94

>  <inspiration_ids>  (223) 
[94, 76]

>  <energy_score>  (223) 
923.590131424926

>  <distance_score>  (223) 
12.431167677021893

>  <path>  (223) 
/opt/xchem-fragalysis-2/maxwin/BulkDock/SCRATCH/511018/C4910-P94/C4910-P94.minimised.mol

>  <scratch_subdir>  (223) 
/opt/xchem-fragalysis-2/maxwin/BulkDock/SCRATCH/511018/C4910-P94

>  <fragmenstein_runtime>  (223) 
36.95465445518494

>  <fragmenstein_outcome>  (223) 
too moved

>  <fragmenstein_mode>  (223) 
expansion

>  <fragmenstein_error>  (223) 


$$$$
C4910-P76
     RDKit          3D

 47 50  0  0  0  0  0  0  0  0999 V2000
   -2.1618  -10.7166   21.0579 O   0  0  0  0  0  0  0  0  0  0  0  0
   -2.2583   -9.8650   21.9036 C   0  0  0  0  0  0  0  0  0  0  0  0
   -3.3257  -10.0981   23.4545 N   0  0  0  0  0  0  0  0  0  0  0  0
   -4.3815  -11.7487   24.1808 C   0  0  0  0  0  0  0  0  0  0  0  0
   -5.7326  -13.2369   23.6068 C   0  0  0  0  0  0  0  0  0  0  0  0
   -6.7610  -15.0313   23.9821 C   0  0  0  0  0  0  0  0  0  0  0  0
   -7.3266  -16.8921   23.4643 N   0  0  0  0  0  0  0  0  0  0  0  0
   -8.1781  -17.1442   22.2388 C   0  0  0  0  0  0  0  0  0  0  0  0
   -8.8218  -18.2600   22.1952 N   0  0  0  0  0  0  0  0  0  0  0  0
   -7.7704  -19.0210   22.4324 C   0  0  0  0  0  0  0  0  0  0  0  0
   -7.5752  -20.3167   21.8803 C   0  0  0  0  0  0  0  0  0  0  0  0
   -6.5928  -21.1547   22.3642 C   0  0  0  0  0  0  0  0  0  0  0  0
   -5.9178  -20.7274   23.4773 C   0  0  0  0  0  0  0  0  0  0  0  0
   -6.1359  -19.4256   24.0212 C   0  0  0  0  0  0  0  0  0  0  0  0
   -6.9160  -18.3967   23.4046 C   0  0  0  0  0  0  0  0  0  0  0  0
   -1.2499   -8.2859   21.8981 N   0  0  0  0  0  0  0  0  0  0  0  0
   -0.0813   -8.4525   22.5905 C   0  0  0  0  0  0  0  0  0  0  0  0
    0.5441   -9.3644   21.5602 C   0  0  0  0  0  0  0  0  0  0  0  0
    0.2631   -8.8725   20.2162 C   0  0  0  0  0  0  0  0  0  0  0  0
    0.1338   -7.6262   20.6205 C   0  0  0  0  0  0  0  0  0  0  0  0
    1.7487   -6.7147   19.8252 C   0  0  0  0  0  0  0  0  0  0  0  0
    2.6423   -7.5954   18.3780 C   0  0  0  0  0  0  0  0  0  0  0  0
    4.2600   -6.9992   18.0524 C   0  0  0  0  0  0  0  0  0  0  0  0
    4.6982   -5.2144   18.7977 S   0  0  0  0  0  0  0  0  0  0  0  0
    2.6762   -5.4876   19.9097 C   0  0  0  0  0  0  0  0  0  0  0  0
   -3.3309   -9.2331   23.9866 H   0  0  0  0  0  0  0  0  0  0  0  0
   -3.6925  -12.1509   24.9293 H   0  0  0  0  0  0  0  0  0  0  0  0
   -5.4015  -11.4569   24.4649 H   0  0  0  0  0  0  0  0  0  0  0  0
   -6.2822  -12.7065   22.8221 H   0  0  0  0  0  0  0  0  0  0  0  0
   -4.9484  -13.9229   23.4551 H   0  0  0  0  0  0  0  0  0  0  0  0
   -7.3715  -14.9938   24.9286 H   0  0  0  0  0  0  0  0  0  0  0  0
   -5.6809  -15.4030   23.9452 H   0  0  0  0  0  0  0  0  0  0  0  0
   -8.1351  -16.4983   21.3726 H   0  0  0  0  0  0  0  0  0  0  0  0
   -8.2542  -20.6565   21.1039 H   0  0  0  0  0  0  0  0  0  0  0  0
   -6.4536  -22.1514   21.9614 H   0  0  0  0  0  0  0  0  0  0  0  0
   -5.2599  -21.4160   24.0068 H   0  0  0  0  0  0  0  0  0  0  0  0
   -5.7917  -19.3876   25.0419 H   0  0  0  0  0  0  0  0  0  0  0  0
    0.4019   -7.4954   22.8019 H   0  0  0  0  0  0  0  0  0  0  0  0
   -0.0331   -8.4228   23.6440 H   0  0  0  0  0  0  0  0  0  0  0  0
    0.2257  -10.3887   21.6866 H   0  0  0  0  0  0  0  0  0  0  0  0
    1.6065   -9.2240   21.5948 H   0  0  0  0  0  0  0  0  0  0  0  0
    1.0597   -8.8751   19.4887 H   0  0  0  0  0  0  0  0  0  0  0  0
   -0.7566   -9.0007   19.7962 H   0  0  0  0  0  0  0  0  0  0  0  0
    0.7254   -7.1010   21.3787 H   0  0  0  0  0  0  0  0  0  0  0  0
    2.2802   -8.5381   17.9724 H   0  0  0  0  0  0  0  0  0  0  0  0
    5.0909   -7.1483   17.4061 H   0  0  0  0  0  0  0  0  0  0  0  0
    2.5947   -4.8217   20.7368 H   0  0  0  0  0  0  0  0  0  0  0  0
  1  2  2  0
  2  3  1  0
  3  4  1  0
  4  5  1  0
  5  6  1  0
  6  7  1  0
  7  8  1  0
  8  9  2  0
  9 10  1  0
 10 11  2  0
 11 12  1  0
 12 13  2  0
 13 14  1  0
 14 15  2  0
  2 16  1  0
 16 17  1  0
 17 18  1  0
 18 19  1  0
 19 20  1  0
 20 21  1  0
 21 22  1  0
 22 23  2  0
 23 24  1  0
 24 25  1  0
 15  7  1  0
 20 16  1  0
 25 21  2  0
 15 10  1  0
  3 26  1  0
  4 27  1  0
  4 28  1  0
  5 29  1  0
  5 30  1  0
  6 31  1  0
  6 32  1  0
  8 33  1  0
 11 34  1  0
 12 35  1  0
 13 36  1  0
 14 37  1  0
 17 38  1  0
 17 39  1  0
 18 40  1  0
 18 41  1  0
 19 42  1  0
 19 43  1  0
 20 44  1  0
 22 45  1  0
 23 46  1  0
 25 47  1  0
M  END
>  <Energy>  (224) 
1277.5830976576376

>  <compound_id>  (224) 
4910

>  <target_id>  (224) 
1

>  <reference_id>  (224) 
76

>  <inspiration_ids>  (224) 
[94, 76]

>  <energy_score>  (224) 
1290.9370959366947

>  <distance_score>  (224) 
11.975457276114719

>  <path>  (224) 
/opt/xchem-fragalysis-2/maxwin/BulkDock/SCRATCH/511018/C4910-P76/C4910-P76.minimised.mol

>  <scratch_subdir>  (224) 
/opt/xchem-fragalysis-2/maxwin/BulkDock/SCRATCH/511018/C4910-P76

>  <fragmenstein_runtime>  (224) 
27.20931601524353

>  <fragmenstein_outcome>  (224) 
too moved

>  <fragmenstein_mode>  (224) 
expansion

>  <fragmenstein_error>  (224) 


$$$$
C4911-P94
     RDKit          3D

 41 44  0  0  0  0  0  0  0  0999 V2000
   -6.5857  -12.5482   22.4252 O   0  0  0  0  0  0  0  0  0  0  0  0
   -5.9791  -11.9429   23.1946 C   0  0  0  0  0  0  0  0  0  0  0  0
   -6.3366  -12.6821   25.0559 N   0  0  0  0  0  0  0  0  0  0  0  0
   -7.4403  -14.4017   25.7580 C   0  0  0  0  0  0  0  0  0  0  0  0
   -8.3302  -15.9583   27.0349 C   0  0  0  0  0  0  0  0  0  0  0  0
   -8.9985  -17.8579   27.8829 C   0  0  0  0  0  0  0  0  0  0  0  0
   -9.2754  -19.8887   28.1637 N   0  0  0  0  0  0  0  0  0  0  0  0
  -10.3514  -20.6020   29.5189 C   0  0  0  0  0  0  0  0  0  0  0  0
  -10.8258  -21.7787   29.7583 N   0  0  0  0  0  0  0  0  0  0  0  0
  -10.5442  -22.4097   28.6842 C   0  0  0  0  0  0  0  0  0  0  0  0
  -10.8652  -23.7884   28.5187 C   0  0  0  0  0  0  0  0  0  0  0  0
  -11.4099  -24.2050   27.3446 C   0  0  0  0  0  0  0  0  0  0  0  0
  -11.7486  -23.1816   26.5190 C   0  0  0  0  0  0  0  0  0  0  0  0
  -11.3195  -21.8129   26.7764 C   0  0  0  0  0  0  0  0  0  0  0  0
  -10.3192  -21.3888   27.7570 C   0  0  0  0  0  0  0  0  0  0  0  0
   -4.7024  -10.5804   22.1010 C   0  0  0  0  0  0  0  0  0  0  0  0
   -4.1058  -11.1119   20.7362 C   0  0  0  0  0  0  0  0  0  0  0  0
   -2.6256  -10.4538   20.2820 S   0  0  0  0  0  0  0  0  0  0  0  0
   -2.6279   -9.5688   21.7529 C   0  0  0  0  0  0  0  0  0  0  0  0
   -1.3704   -8.8656   22.1508 C   0  0  0  0  0  0  0  0  0  0  0  0
   -1.0161   -7.9948   23.1950 C   0  0  0  0  0  0  0  0  0  0  0  0
    0.2934   -7.6125   23.1371 C   0  0  0  0  0  0  0  0  0  0  0  0
    0.7373   -8.0672   21.6102 S   0  0  0  0  0  0  0  0  0  0  0  0
   -0.2395   -9.3438   21.5962 C   0  0  0  0  0  0  0  0  0  0  0  0
   -3.5682   -9.8085   22.6500 N   0  0  0  0  0  0  0  0  0  0  0  0
   -5.8974  -12.1156   25.6915 H   0  0  0  0  0  0  0  0  0  0  0  0
   -8.4007  -14.6362   25.2857 H   0  0  0  0  0  0  0  0  0  0  0  0
   -7.0812  -14.9975   24.9535 H   0  0  0  0  0  0  0  0  0  0  0  0
   -8.2798  -15.4102   27.9961 H   0  0  0  0  0  0  0  0  0  0  0  0
   -9.3553  -15.7293   26.6842 H   0  0  0  0  0  0  0  0  0  0  0  0
   -8.0086  -18.1245   28.2538 H   0  0  0  0  0  0  0  0  0  0  0  0
   -9.4342  -17.9431   26.9437 H   0  0  0  0  0  0  0  0  0  0  0  0
  -10.4404  -20.1466   30.4777 H   0  0  0  0  0  0  0  0  0  0  0  0
  -10.9073  -24.4319   29.3939 H   0  0  0  0  0  0  0  0  0  0  0  0
  -11.7509  -25.2178   27.1881 H   0  0  0  0  0  0  0  0  0  0  0  0
  -12.3501  -23.3765   25.6330 H   0  0  0  0  0  0  0  0  0  0  0  0
  -11.5973  -21.1608   25.9584 H   0  0  0  0  0  0  0  0  0  0  0  0
   -4.4682  -11.9013   20.1161 H   0  0  0  0  0  0  0  0  0  0  0  0
   -1.5688   -7.5551   23.9927 H   0  0  0  0  0  0  0  0  0  0  0  0
    0.7326   -6.8461   23.7476 H   0  0  0  0  0  0  0  0  0  0  0  0
   -0.0735  -10.2623   21.1013 H   0  0  0  0  0  0  0  0  0  0  0  0
  1  2  2  0
  2  3  1  0
  3  4  1  0
  4  5  1  0
  5  6  1  0
  6  7  1  0
  7  8  1  0
  8  9  2  0
  9 10  1  0
 10 11  2  0
 11 12  1  0
 12 13  2  0
 13 14  1  0
 14 15  2  0
  2 16  1  0
 16 17  2  0
 17 18  1  0
 18 19  1  0
 19 20  1  0
 20 21  1  0
 21 22  2  0
 22 23  1  0
 23 24  1  0
 19 25  2  0
 15  7  1  0
 25 16  1  0
 15 10  1  0
 24 20  2  0
  3 26  1  0
  4 27  1  0
  4 28  1  0
  5 29  1  0
  5 30  1  0
  6 31  1  0
  6 32  1  0
  8 33  1  0
 11 34  1  0
 12 35  1  0
 13 36  1  0
 14 37  1  0
 17 38  1  0
 21 39  1  0
 22 40  1  0
 24 41  1  0
M  END
>  <Energy>  (225) 
1474.4213624461493

>  <compound_id>  (225) 
4911

>  <target_id>  (225) 
1

>  <reference_id>  (225) 
94

>  <inspiration_ids>  (225) 
[94, 76]

>  <energy_score>  (225) 
1369.6196478183983

>  <distance_score>  (225) 
11.368049722875648

>  <path>  (225) 
/opt/xchem-fragalysis-2/maxwin/BulkDock/SCRATCH/511018/C4911-P94/C4911-P94.minimised.mol

>  <scratch_subdir>  (225) 
/opt/xchem-fragalysis-2/maxwin/BulkDock/SCRATCH/511018/C4911-P94

>  <fragmenstein_runtime>  (225) 
71.3384325504303

>  <fragmenstein_outcome>  (225) 
too moved

>  <fragmenstein_mode>  (225) 
expansion

>  <fragmenstein_error>  (225) 


$$$$
C4911-P76
     RDKit          3D

 41 44  0  0  0  0  0  0  0  0999 V2000
   -4.5528  -10.0602   22.1376 O   0  0  0  0  0  0  0  0  0  0  0  0
   -3.7292  -10.2840   22.9098 C   0  0  0  0  0  0  0  0  0  0  0  0
   -4.2737  -11.5822   24.3080 N   0  0  0  0  0  0  0  0  0  0  0  0
   -6.0621  -12.4895   24.7164 C   0  0  0  0  0  0  0  0  0  0  0  0
   -7.0911  -13.9850   25.9979 C   0  0  0  0  0  0  0  0  0  0  0  0
   -8.4102  -15.6118   26.6489 C   0  0  0  0  0  0  0  0  0  0  0  0
   -8.8448  -17.2550   27.7151 N   0  0  0  0  0  0  0  0  0  0  0  0
   -7.9892  -17.7771   28.7013 C   0  0  0  0  0  0  0  0  0  0  0  0
   -8.3257  -19.1921   28.8031 N   0  0  0  0  0  0  0  0  0  0  0  0
   -9.9857  -20.2266   29.0852 C   0  0  0  0  0  0  0  0  0  0  0  0
  -10.6458  -21.2877   29.8959 C   0  0  0  0  0  0  0  0  0  0  0  0
  -11.2390  -22.2758   29.2236 C   0  0  0  0  0  0  0  0  0  0  0  0
  -10.6467  -22.1949   28.0441 C   0  0  0  0  0  0  0  0  0  0  0  0
   -9.7475  -20.8073   27.6071 C   0  0  0  0  0  0  0  0  0  0  0  0
   -9.2282  -19.0338   27.9780 C   0  0  0  0  0  0  0  0  0  0  0  0
   -2.3623   -9.3766   22.5227 C   0  0  0  0  0  0  0  0  0  0  0  0
   -1.6761   -8.2809   22.9965 C   0  0  0  0  0  0  0  0  0  0  0  0
   -0.1236   -8.2369   22.2564 S   0  0  0  0  0  0  0  0  0  0  0  0
   -0.8797   -8.8625   20.9023 C   0  0  0  0  0  0  0  0  0  0  0  0
   -0.2282   -8.4509   19.5462 C   0  0  0  0  0  0  0  0  0  0  0  0
   -0.7314   -8.4998   18.2796 C   0  0  0  0  0  0  0  0  0  0  0  0
    0.2762   -8.3243   17.3156 C   0  0  0  0  0  0  0  0  0  0  0  0
    1.8649   -8.6055   17.9277 S   0  0  0  0  0  0  0  0  0  0  0  0
    1.1034   -8.5911   19.4202 C   0  0  0  0  0  0  0  0  0  0  0  0
   -1.9949   -9.5171   21.1423 N   0  0  0  0  0  0  0  0  0  0  0  0
   -3.4614  -11.7908   24.8921 H   0  0  0  0  0  0  0  0  0  0  0  0
   -6.0086  -12.8963   23.6891 H   0  0  0  0  0  0  0  0  0  0  0  0
   -6.6767  -11.5848   24.7979 H   0  0  0  0  0  0  0  0  0  0  0  0
   -7.4018  -14.5731   25.1247 H   0  0  0  0  0  0  0  0  0  0  0  0
   -7.4967  -13.2945   26.7359 H   0  0  0  0  0  0  0  0  0  0  0  0
   -9.0352  -15.0522   27.3682 H   0  0  0  0  0  0  0  0  0  0  0  0
   -9.0652  -15.9002   25.8137 H   0  0  0  0  0  0  0  0  0  0  0  0
   -7.1106  -17.3086   29.1278 H   0  0  0  0  0  0  0  0  0  0  0  0
  -10.7288  -21.1824   30.9746 H   0  0  0  0  0  0  0  0  0  0  0  0
  -11.8617  -23.0663   29.5950 H   0  0  0  0  0  0  0  0  0  0  0  0
  -10.9245  -22.9040   27.2601 H   0  0  0  0  0  0  0  0  0  0  0  0
  -10.3372  -20.8363   26.6545 H   0  0  0  0  0  0  0  0  0  0  0  0
   -1.6778   -7.6836   23.8927 H   0  0  0  0  0  0  0  0  0  0  0  0
   -1.7839   -8.7382   18.2136 H   0  0  0  0  0  0  0  0  0  0  0  0
    0.1957   -8.2518   16.2449 H   0  0  0  0  0  0  0  0  0  0  0  0
    1.5117   -9.2252   20.1824 H   0  0  0  0  0  0  0  0  0  0  0  0
  1  2  2  0
  2  3  1  0
  3  4  1  0
  4  5  1  0
  5  6  1  0
  6  7  1  0
  7  8  1  0
  8  9  2  0
  9 10  1  0
 10 11  2  0
 11 12  1  0
 12 13  2  0
 13 14  1  0
 14 15  2  0
  2 16  1  0
 16 17  2  0
 17 18  1  0
 18 19  1  0
 19 20  1  0
 20 21  1  0
 21 22  2  0
 22 23  1  0
 23 24  1  0
 19 25  2  0
 15  7  1  0
 25 16  1  0
 15 10  1  0
 24 20  2  0
  3 26  1  0
  4 27  1  0
  4 28  1  0
  5 29  1  0
  5 30  1  0
  6 31  1  0
  6 32  1  0
  8 33  1  0
 11 34  1  0
 12 35  1  0
 13 36  1  0
 14 37  1  0
 17 38  1  0
 21 39  1  0
 22 40  1  0
 24 41  1  0
M  END
>  <Energy>  (226) 
1732.7722343133917

>  <compound_id>  (226) 
4911

>  <target_id>  (226) 
1

>  <reference_id>  (226) 
76

>  <inspiration_ids>  (226) 
[94, 76]

>  <energy_score>  (226) 
1627.9705196855948

>  <distance_score>  (226) 
11.018522189905044

>  <path>  (226) 
/opt/xchem-fragalysis-2/maxwin/BulkDock/SCRATCH/511018/C4911-P76/C4911-P76.minimised.mol

>  <scratch_subdir>  (226) 
/opt/xchem-fragalysis-2/maxwin/BulkDock/SCRATCH/511018/C4911-P76

>  <fragmenstein_runtime>  (226) 
21.53663969039917

>  <fragmenstein_outcome>  (226) 
too moved

>  <fragmenstein_mode>  (226) 
expansion

>  <fragmenstein_error>  (226) 


$$$$
C4919-P94
     RDKit          3D

 36 39  0  0  0  0  0  0  0  0999 V2000
   -4.0132  -10.0500   20.7633 O   0  0  0  0  0  0  0  0  0  0  0  0
   -3.3889   -9.6972   21.7282 C   0  0  0  0  0  0  0  0  0  0  0  0
   -3.4688  -10.1361   23.1497 N   0  0  0  0  0  0  0  0  0  0  0  0
   -4.5249  -11.2836   23.9340 C   0  0  0  0  0  0  0  0  0  0  0  0
   -6.1644  -11.7571   23.2342 C   0  0  0  0  0  0  0  0  0  0  0  0
   -6.8726  -11.5866   24.8739 C   0  0  0  0  0  0  0  0  0  0  0  0
   -6.7047  -12.4995   25.9572 C   0  0  0  0  0  0  0  0  0  0  0  0
   -7.6690  -13.9196   26.6042 N   0  0  0  0  0  0  0  0  0  0  0  0
   -8.0550  -15.1228   25.7913 C   0  0  0  0  0  0  0  0  0  0  0  0
   -8.5720  -16.0843   26.5409 N   0  0  0  0  0  0  0  0  0  0  0  0
   -9.1694  -15.4470   27.5562 C   0  0  0  0  0  0  0  0  0  0  0  0
  -10.2550  -16.0308   28.2323 C   0  0  0  0  0  0  0  0  0  0  0  0
  -11.4923  -15.4284   28.0577 C   0  0  0  0  0  0  0  0  0  0  0  0
  -11.5794  -14.3173   27.2294 C   0  0  0  0  0  0  0  0  0  0  0  0
  -10.4181  -13.6739   26.7341 C   0  0  0  0  0  0  0  0  0  0  0  0
   -9.1155  -14.0934   27.1840 C   0  0  0  0  0  0  0  0  0  0  0  0
   -5.8709  -12.6014   24.9246 C   0  0  0  0  0  0  0  0  0  0  0  0
   -4.2426  -12.2180   24.6618 C   0  0  0  0  0  0  0  0  0  0  0  0
   -2.2555   -8.7229   21.5017 C   0  0  0  0  0  0  0  0  0  0  0  0
   -0.8526   -9.0935   21.3978 C   0  0  0  0  0  0  0  0  0  0  0  0
   -0.0015   -8.0510   21.0896 C   0  0  0  0  0  0  0  0  0  0  0  0
   -0.8611   -6.5966   20.8786 S   0  0  0  0  0  0  0  0  0  0  0  0
   -2.3698   -7.3770   21.1903 C   0  0  0  0  0  0  0  0  0  0  0  0
   -2.8452   -9.5578   23.7155 H   0  0  0  0  0  0  0  0  0  0  0  0
   -6.5379  -11.3775   22.3014 H   0  0  0  0  0  0  0  0  0  0  0  0
   -7.5592  -10.7130   24.9628 H   0  0  0  0  0  0  0  0  0  0  0  0
   -7.7773  -15.2255   24.7584 H   0  0  0  0  0  0  0  0  0  0  0  0
  -10.2225  -17.0731   28.5105 H   0  0  0  0  0  0  0  0  0  0  0  0
  -12.3934  -15.9064   28.4321 H   0  0  0  0  0  0  0  0  0  0  0  0
  -12.5580  -13.9334   26.9493 H   0  0  0  0  0  0  0  0  0  0  0  0
  -10.5358  -12.8617   26.0244 H   0  0  0  0  0  0  0  0  0  0  0  0
   -5.9234  -13.3527   24.0316 H   0  0  0  0  0  0  0  0  0  0  0  0
   -3.3791  -12.2479   25.3323 H   0  0  0  0  0  0  0  0  0  0  0  0
   -0.4860  -10.1009   21.5380 H   0  0  0  0  0  0  0  0  0  0  0  0
    1.0739   -8.0911   20.9777 H   0  0  0  0  0  0  0  0  0  0  0  0
   -3.2827   -6.8006   21.1327 H   0  0  0  0  0  0  0  0  0  0  0  0
  1  2  2  0
  2  3  1  0
  3  4  1  0
  4  5  2  0
  5  6  1  0
  6  7  2  0
  7  8  1  0
  8  9  1  0
  9 10  2  0
 10 11  1  0
 11 12  2  0
 12 13  1  0
 13 14  2  0
 14 15  1  0
 15 16  2  0
  7 17  1  0
 17 18  2  0
  2 19  1  0
 19 20  1  0
 20 21  2  0
 21 22  1  0
 22 23  1  0
 18  4  1  0
 23 19  2  0
 16  8  1  0
 16 11  1  0
  3 24  1  0
  5 25  1  0
  6 26  1  0
  9 27  1  0
 12 28  1  0
 13 29  1  0
 14 30  1  0
 15 31  1  0
 17 32  1  0
 18 33  1  0
 20 34  1  0
 21 35  1  0
 23 36  1  0
M  END
>  <Energy>  (227) 
736.76265645928675

>  <compound_id>  (227) 
4919

>  <target_id>  (227) 
1

>  <reference_id>  (227) 
94

>  <inspiration_ids>  (227) 
[94, 76]

>  <energy_score>  (227) 
648.3957831172138

>  <distance_score>  (227) 
14.146177956384218

>  <path>  (227) 
/opt/xchem-fragalysis-2/maxwin/BulkDock/SCRATCH/511018/C4919-P94/C4919-P94.minimised.mol

>  <scratch_subdir>  (227) 
/opt/xchem-fragalysis-2/maxwin/BulkDock/SCRATCH/511018/C4919-P94

>  <fragmenstein_runtime>  (227) 
31.045459270477295

>  <fragmenstein_outcome>  (227) 
too moved

>  <fragmenstein_mode>  (227) 
expansion

>  <fragmenstein_error>  (227) 


$$$$
C4919-P76
     RDKit          3D

 36 39  0  0  0  0  0  0  0  0999 V2000
   -0.5305  -17.7328   21.7346 O   0  0  0  0  0  0  0  0  0  0  0  0
   -0.6949  -18.8578   22.1832 C   0  0  0  0  0  0  0  0  0  0  0  0
   -1.3636  -19.3827   23.7161 N   0  0  0  0  0  0  0  0  0  0  0  0
   -1.9828  -18.3528   25.3678 C   0  0  0  0  0  0  0  0  0  0  0  0
   -1.5926  -18.6108   26.5451 C   0  0  0  0  0  0  0  0  0  0  0  0
   -2.8431  -18.9893   27.0790 C   0  0  0  0  0  0  0  0  0  0  0  0
   -4.6458  -18.5858   27.5891 C   0  0  0  0  0  0  0  0  0  0  0  0
   -5.7665  -20.1724   27.0910 N   0  0  0  0  0  0  0  0  0  0  0  0
   -7.2261  -20.2727   27.4799 C   0  0  0  0  0  0  0  0  0  0  0  0
   -8.0022  -21.2471   27.4185 N   0  0  0  0  0  0  0  0  0  0  0  0
   -7.4626  -22.2631   27.9216 C   0  0  0  0  0  0  0  0  0  0  0  0
   -8.7536  -23.3702   28.3030 C   0  0  0  0  0  0  0  0  0  0  0  0
   -9.6722  -23.8096   27.5354 C   0  0  0  0  0  0  0  0  0  0  0  0
   -8.7086  -23.7740   26.6258 C   0  0  0  0  0  0  0  0  0  0  0  0
   -7.0201  -23.0341   26.4046 C   0  0  0  0  0  0  0  0  0  0  0  0
   -6.0182  -22.0465   27.3605 C   0  0  0  0  0  0  0  0  0  0  0  0
   -3.5436  -17.2453   27.2747 C   0  0  0  0  0  0  0  0  0  0  0  0
   -2.5586  -17.1437   25.8812 C   0  0  0  0  0  0  0  0  0  0  0  0
   -0.1277  -19.8703   21.2315 C   0  0  0  0  0  0  0  0  0  0  0  0
   -0.3815  -19.6644   19.7964 C   0  0  0  0  0  0  0  0  0  0  0  0
    0.6920  -19.9417   18.9755 C   0  0  0  0  0  0  0  0  0  0  0  0
    2.0121  -20.5481   19.8576 S   0  0  0  0  0  0  0  0  0  0  0  0
    1.1382  -20.4239   21.3372 C   0  0  0  0  0  0  0  0  0  0  0  0
   -1.2793  -20.3878   23.8085 H   0  0  0  0  0  0  0  0  0  0  0  0
   -0.6662  -19.0233   26.8655 H   0  0  0  0  0  0  0  0  0  0  0  0
   -2.2898  -19.9053   27.3523 H   0  0  0  0  0  0  0  0  0  0  0  0
   -7.8985  -19.4575   28.0109 H   0  0  0  0  0  0  0  0  0  0  0  0
   -8.6930  -24.2161   29.0418 H   0  0  0  0  0  0  0  0  0  0  0  0
  -10.5133  -24.4608   27.5980 H   0  0  0  0  0  0  0  0  0  0  0  0
   -9.3138  -24.1559   25.7553 H   0  0  0  0  0  0  0  0  0  0  0  0
   -6.5070  -23.4221   25.5011 H   0  0  0  0  0  0  0  0  0  0  0  0
   -3.5380  -16.4106   27.9624 H   0  0  0  0  0  0  0  0  0  0  0  0
   -2.7134  -16.2383   25.2742 H   0  0  0  0  0  0  0  0  0  0  0  0
   -1.2598  -19.1451   19.4294 H   0  0  0  0  0  0  0  0  0  0  0  0
    0.7629  -19.7906   17.9075 H   0  0  0  0  0  0  0  0  0  0  0  0
    1.7239  -20.5595   22.2227 H   0  0  0  0  0  0  0  0  0  0  0  0
  1  2  2  0
  2  3  1  0
  3  4  1  0
  4  5  2  0
  5  6  1  0
  6  7  2  0
  7  8  1  0
  8  9  1  0
  9 10  2  0
 10 11  1  0
 11 12  2  0
 12 13  1  0
 13 14  2  0
 14 15  1  0
 15 16  2  0
  7 17  1  0
 17 18  2  0
  2 19  1  0
 19 20  1  0
 20 21  2  0
 21 22  1  0
 22 23  1  0
 18  4  1  0
 23 19  2  0
 16  8  1  0
 16 11  1  0
  3 24  1  0
  5 25  1  0
  6 26  1  0
  9 27  1  0
 12 28  1  0
 13 29  1  0
 14 30  1  0
 15 31  1  0
 17 32  1  0
 18 33  1  0
 20 34  1  0
 21 35  1  0
 23 36  1  0
M  END
>  <Energy>  (228) 
1356.1023279181625

>  <compound_id>  (228) 
4919

>  <target_id>  (228) 
1

>  <reference_id>  (228) 
76

>  <inspiration_ids>  (228) 
[94, 76]

>  <energy_score>  (228) 
1267.7354545760813

>  <distance_score>  (228) 
15.19923097221182

>  <path>  (228) 
/opt/xchem-fragalysis-2/maxwin/BulkDock/SCRATCH/511018/C4919-P76/C4919-P76.minimised.mol

>  <scratch_subdir>  (228) 
/opt/xchem-fragalysis-2/maxwin/BulkDock/SCRATCH/511018/C4919-P76

>  <fragmenstein_runtime>  (228) 
13.110629558563232

>  <fragmenstein_outcome>  (228) 
too moved

>  <fragmenstein_mode>  (228) 
expansion

>  <fragmenstein_error>  (228) 


$$$$
C4922-P94
     RDKit          3D

 46 48  0  0  0  0  0  0  0  0999 V2000
    3.0519   -4.9556   17.8152 C   0  0  0  0  0  0  0  0  0  0  0  0
    2.8708   -4.5713   19.2882 C   0  0  0  0  0  0  0  0  0  0  0  0
    1.4470   -4.0446   19.5005 C   0  0  0  0  0  0  0  0  0  0  0  0
    3.1704   -5.7412   20.2809 C   0  0  0  0  0  0  0  0  0  0  0  0
    2.2662   -7.0716   20.0259 C   0  0  0  0  0  0  0  0  0  0  0  0
    0.9921   -7.4402   20.7233 N   0  0  0  0  0  0  0  0  0  0  0  0
   -0.3733   -7.6183   20.2042 C   0  0  0  0  0  0  0  0  0  0  0  0
   -0.8217   -7.4326   19.1057 O   0  0  0  0  0  0  0  0  0  0  0  0
   -1.4228   -8.1878   21.2009 C   0  0  0  0  0  0  0  0  0  0  0  0
   -1.5770   -7.6215   22.4861 C   0  0  0  0  0  0  0  0  0  0  0  0
   -2.6827   -7.9003   23.3198 C   0  0  0  0  0  0  0  0  0  0  0  0
   -3.7135   -8.7380   22.9103 C   0  0  0  0  0  0  0  0  0  0  0  0
   -3.5478   -9.3375   21.6734 C   0  0  0  0  0  0  0  0  0  0  0  0
   -4.3912  -10.1817   20.9939 N   0  0  0  0  0  0  0  0  0  0  0  0
   -3.7459  -10.6039   19.8817 C   0  0  0  0  0  0  0  0  0  0  0  0
   -2.5997   -9.9848   19.7428 N   0  0  0  0  0  0  0  0  0  0  0  0
   -2.4408   -9.1431   20.8340 C   0  0  0  0  0  0  0  0  0  0  0  0
    4.6583   -6.0709   20.2178 N   0  0  0  0  0  0  0  0  0  0  0  0
    5.4905   -5.0964   20.9500 C   0  0  0  0  0  0  0  0  0  0  0  0
    6.9098   -5.5848   21.1705 C   0  0  0  0  0  0  0  0  0  0  0  0
    7.9474   -4.7450   21.7211 C   0  0  0  0  0  0  0  0  0  0  0  0
    9.1586   -5.3816   21.8586 C   0  0  0  0  0  0  0  0  0  0  0  0
    9.0321   -7.0374   21.4871 S   0  0  0  0  0  0  0  0  0  0  0  0
    7.4103   -6.8598   20.9754 C   0  0  0  0  0  0  0  0  0  0  0  0
    4.0061   -5.4601   17.6391 H   0  0  0  0  0  0  0  0  0  0  0  0
    2.2528   -5.6148   17.4619 H   0  0  0  0  0  0  0  0  0  0  0  0
    3.0278   -4.0587   17.1861 H   0  0  0  0  0  0  0  0  0  0  0  0
    3.5447   -3.7356   19.5080 H   0  0  0  0  0  0  0  0  0  0  0  0
    1.2649   -3.1655   18.8729 H   0  0  0  0  0  0  0  0  0  0  0  0
    1.2938   -3.7464   20.5430 H   0  0  0  0  0  0  0  0  0  0  0  0
    0.6934   -4.7963   19.2465 H   0  0  0  0  0  0  0  0  0  0  0  0
    2.9392   -5.4230   21.3058 H   0  0  0  0  0  0  0  0  0  0  0  0
    2.9103   -7.8853   20.3572 H   0  0  0  0  0  0  0  0  0  0  0  0
    2.0979   -7.2191   18.9560 H   0  0  0  0  0  0  0  0  0  0  0  0
    1.0294   -7.7738   21.6798 H   0  0  0  0  0  0  0  0  0  0  0  0
   -0.8581   -6.8735   22.8164 H   0  0  0  0  0  0  0  0  0  0  0  0
   -2.7639   -7.3825   24.2744 H   0  0  0  0  0  0  0  0  0  0  0  0
   -4.6188   -8.8773   23.4848 H   0  0  0  0  0  0  0  0  0  0  0  0
   -5.2240  -10.5959   21.3855 H   0  0  0  0  0  0  0  0  0  0  0  0
   -4.1519  -11.3367   19.2021 H   0  0  0  0  0  0  0  0  0  0  0  0
    4.7655   -6.9676   20.6917 H   0  0  0  0  0  0  0  0  0  0  0  0
    5.4893   -4.1391   20.4337 H   0  0  0  0  0  0  0  0  0  0  0  0
    5.0609   -4.9283   21.9463 H   0  0  0  0  0  0  0  0  0  0  0  0
    7.7981   -3.7099   21.9996 H   0  0  0  0  0  0  0  0  0  0  0  0
   10.0935   -4.9682   22.2142 H   0  0  0  0  0  0  0  0  0  0  0  0
    6.8892   -7.7266   20.5927 H   0  0  0  0  0  0  0  0  0  0  0  0
  1  2  1  0
  2  3  1  0
  2  4  1  0
  4  5  1  0
  5  6  1  0
  6  7  1  0
  7  8  2  0
  7  9  1  0
  9 10  2  0
 10 11  1  0
 11 12  2  0
 12 13  1  0
 13 14  1  0
 14 15  1  0
 15 16  2  0
 16 17  1  0
  4 18  1  0
 18 19  1  0
 19 20  1  0
 20 21  1  0
 21 22  2  0
 22 23  1  0
 23 24  1  0
 17  9  1  0
 24 20  2  0
 17 13  2  0
  1 25  1  0
  1 26  1  0
  1 27  1  0
  2 28  1  0
  3 29  1  0
  3 30  1  0
  3 31  1  0
  4 32  1  0
  5 33  1  0
  5 34  1  0
  6 35  1  0
 10 36  1  0
 11 37  1  0
 12 38  1  0
 14 39  1  0
 15 40  1  0
 18 41  1  0
 19 42  1  0
 19 43  1  0
 21 44  1  0
 22 45  1  0
 24 46  1  0
M  END
>  <Energy>  (229) 
76.911349102937379

>  <compound_id>  (229) 
4922

>  <target_id>  (229) 
1

>  <reference_id>  (229) 
94

>  <inspiration_ids>  (229) 
[94, 76]

>  <energy_score>  (229) 
-25.44302428780361

>  <distance_score>  (229) 
16.162008502620743

>  <path>  (229) 
/opt/xchem-fragalysis-2/maxwin/BulkDock/SCRATCH/511018/C4922-P94/C4922-P94.minimised.mol

>  <scratch_subdir>  (229) 
/opt/xchem-fragalysis-2/maxwin/BulkDock/SCRATCH/511018/C4922-P94

>  <fragmenstein_runtime>  (229) 
38.98070979118347

>  <fragmenstein_outcome>  (229) 
too moved

>  <fragmenstein_mode>  (229) 
expansion

>  <fragmenstein_error>  (229) 


$$$$
C4922-P76
     RDKit          3D

 46 48  0  0  0  0  0  0  0  0999 V2000
   -0.8832   -6.5151   21.7728 C   0  0  0  0  0  0  0  0  0  0  0  0
   -1.1522   -6.9042   20.3114 C   0  0  0  0  0  0  0  0  0  0  0  0
   -0.8566   -5.7124   19.4005 C   0  0  0  0  0  0  0  0  0  0  0  0
   -0.4835   -8.2850   19.9131 C   0  0  0  0  0  0  0  0  0  0  0  0
   -1.6490   -9.5911   20.5635 C   0  0  0  0  0  0  0  0  0  0  0  0
   -1.7017  -11.2211   20.8703 N   0  0  0  0  0  0  0  0  0  0  0  0
   -2.0813  -12.4442   19.9374 C   0  0  0  0  0  0  0  0  0  0  0  0
   -2.3387  -12.4367   18.7551 O   0  0  0  0  0  0  0  0  0  0  0  0
   -2.0912  -14.3045   20.6264 C   0  0  0  0  0  0  0  0  0  0  0  0
   -2.0211  -14.6661   21.9511 C   0  0  0  0  0  0  0  0  0  0  0  0
   -3.2225  -15.3471   23.2012 C   0  0  0  0  0  0  0  0  0  0  0  0
   -3.9964  -16.4561   21.9375 C   0  0  0  0  0  0  0  0  0  0  0  0
   -3.2757  -16.7792   20.6850 C   0  0  0  0  0  0  0  0  0  0  0  0
   -3.3808  -17.8925   19.9035 N   0  0  0  0  0  0  0  0  0  0  0  0
   -2.6220  -17.6479   18.8262 C   0  0  0  0  0  0  0  0  0  0  0  0
   -2.1073  -16.4351   18.8624 N   0  0  0  0  0  0  0  0  0  0  0  0
   -2.3883  -15.8005   20.0460 C   0  0  0  0  0  0  0  0  0  0  0  0
    1.0207   -8.0542   20.1630 N   0  0  0  0  0  0  0  0  0  0  0  0
    1.7552   -7.5893   18.9357 C   0  0  0  0  0  0  0  0  0  0  0  0
    3.1537   -7.0263   19.1955 C   0  0  0  0  0  0  0  0  0  0  0  0
    3.4832   -5.9610   20.1026 C   0  0  0  0  0  0  0  0  0  0  0  0
    4.8197   -5.6200   20.0864 C   0  0  0  0  0  0  0  0  0  0  0  0
    5.7030   -6.5835   18.9957 S   0  0  0  0  0  0  0  0  0  0  0  0
    4.2948   -7.4088   18.4997 C   0  0  0  0  0  0  0  0  0  0  0  0
   -1.5117   -5.6655   22.0620 H   0  0  0  0  0  0  0  0  0  0  0  0
   -1.1070   -7.3368   22.4586 H   0  0  0  0  0  0  0  0  0  0  0  0
    0.1593   -6.2187   21.9295 H   0  0  0  0  0  0  0  0  0  0  0  0
   -2.2359   -7.0667   20.2277 H   0  0  0  0  0  0  0  0  0  0  0  0
   -1.5630   -4.8995   19.6055 H   0  0  0  0  0  0  0  0  0  0  0  0
   -0.9716   -5.9832   18.3464 H   0  0  0  0  0  0  0  0  0  0  0  0
    0.1450   -5.3046   19.5637 H   0  0  0  0  0  0  0  0  0  0  0  0
   -0.6289   -8.3949   18.8276 H   0  0  0  0  0  0  0  0  0  0  0  0
   -1.9238   -9.1996   21.5483 H   0  0  0  0  0  0  0  0  0  0  0  0
   -2.5159   -9.4682   19.9015 H   0  0  0  0  0  0  0  0  0  0  0  0
   -1.4665  -11.5620   21.7767 H   0  0  0  0  0  0  0  0  0  0  0  0
   -0.9829  -14.7979   22.4307 H   0  0  0  0  0  0  0  0  0  0  0  0
   -4.0928  -14.8523   23.6400 H   0  0  0  0  0  0  0  0  0  0  0  0
   -4.8320  -17.1448   22.0812 H   0  0  0  0  0  0  0  0  0  0  0  0
   -3.9384  -18.7138   20.0900 H   0  0  0  0  0  0  0  0  0  0  0  0
   -2.4956  -18.3536   18.0159 H   0  0  0  0  0  0  0  0  0  0  0  0
    1.3707   -8.9883   20.4131 H   0  0  0  0  0  0  0  0  0  0  0  0
    1.2023   -6.8045   18.4162 H   0  0  0  0  0  0  0  0  0  0  0  0
    1.8187   -8.4226   18.2257 H   0  0  0  0  0  0  0  0  0  0  0  0
    2.7529   -5.4768   20.7409 H   0  0  0  0  0  0  0  0  0  0  0  0
    5.3109   -4.8555   20.6728 H   0  0  0  0  0  0  0  0  0  0  0  0
    4.3586   -8.1642   17.7281 H   0  0  0  0  0  0  0  0  0  0  0  0
  1  2  1  0
  2  3  1  0
  2  4  1  0
  4  5  1  0
  5  6  1  0
  6  7  1  0
  7  8  2  0
  7  9  1  0
  9 10  2  0
 10 11  1  0
 11 12  2  0
 12 13  1  0
 13 14  1  0
 14 15  1  0
 15 16  2  0
 16 17  1  0
  4 18  1  0
 18 19  1  0
 19 20  1  0
 20 21  1  0
 21 22  2  0
 22 23  1  0
 23 24  1  0
 17  9  1  0
 24 20  2  0
 17 13  2  0
  1 25  1  0
  1 26  1  0
  1 27  1  0
  2 28  1  0
  3 29  1  0
  3 30  1  0
  3 31  1  0
  4 32  1  0
  5 33  1  0
  5 34  1  0
  6 35  1  0
 10 36  1  0
 11 37  1  0
 12 38  1  0
 14 39  1  0
 15 40  1  0
 18 41  1  0
 19 42  1  0
 19 43  1  0
 21 44  1  0
 22 45  1  0
 24 46  1  0
M  END
>  <Energy>  (230) 
458.27131393131259

>  <compound_id>  (230) 
4922

>  <target_id>  (230) 
1

>  <reference_id>  (230) 
76

>  <inspiration_ids>  (230) 
[94, 76]

>  <energy_score>  (230) 
355.9169405405712

>  <distance_score>  (230) 
16.019086689914484

>  <path>  (230) 
/opt/xchem-fragalysis-2/maxwin/BulkDock/SCRATCH/511018/C4922-P76/C4922-P76.minimised.mol

>  <scratch_subdir>  (230) 
/opt/xchem-fragalysis-2/maxwin/BulkDock/SCRATCH/511018/C4922-P76

>  <fragmenstein_runtime>  (230) 
19.51481294631958

>  <fragmenstein_outcome>  (230) 
too moved

>  <fragmenstein_mode>  (230) 
expansion

>  <fragmenstein_error>  (230) 


$$$$
C4923-P94
     RDKit          3D

 44 46  0  0  0  0  0  0  0  0999 V2000
   -6.8998  -10.8141   21.5233 C   0  0  0  0  0  0  0  0  0  0  0  0
   -5.9345  -10.8633   20.4371 N   0  0  0  0  0  0  0  0  0  0  0  0
   -6.1945  -11.5541   19.2776 C   0  0  0  0  0  0  0  0  0  0  0  0
   -5.1446  -11.5979   18.4878 N   0  0  0  0  0  0  0  0  0  0  0  0
   -4.2268  -10.7261   19.0428 C   0  0  0  0  0  0  0  0  0  0  0  0
   -3.0241  -10.1720   18.4772 C   0  0  0  0  0  0  0  0  0  0  0  0
   -2.2660   -9.1322   19.1054 C   0  0  0  0  0  0  0  0  0  0  0  0
   -1.4352   -8.1082   18.2133 C   0  0  0  0  0  0  0  0  0  0  0  0
   -2.1500   -7.6207   17.3761 O   0  0  0  0  0  0  0  0  0  0  0  0
    0.0024   -7.8669   18.5143 N   0  0  0  0  0  0  0  0  0  0  0  0
    1.0434   -7.0056   17.7949 C   0  0  0  0  0  0  0  0  0  0  0  0
    2.5235   -6.4814   18.3669 C   0  0  0  0  0  0  0  0  0  0  0  0
    2.7121   -4.9296   18.1007 C   0  0  0  0  0  0  0  0  0  0  0  0
    3.1633   -4.6019   16.7783 O   0  0  0  0  0  0  0  0  0  0  0  0
    3.6636   -7.2798   17.8005 N   0  0  0  0  0  0  0  0  0  0  0  0
    5.0128   -6.7065   17.8418 C   0  0  0  0  0  0  0  0  0  0  0  0
    5.7178   -6.8684   19.1531 C   0  0  0  0  0  0  0  0  0  0  0  0
    6.2892   -8.0977   19.6209 C   0  0  0  0  0  0  0  0  0  0  0  0
    7.0526   -7.9424   20.7569 C   0  0  0  0  0  0  0  0  0  0  0  0
    7.0644   -6.3267   21.2996 S   0  0  0  0  0  0  0  0  0  0  0  0
    5.9883   -5.8573   20.0574 C   0  0  0  0  0  0  0  0  0  0  0  0
   -2.7191   -8.7693   20.3780 C   0  0  0  0  0  0  0  0  0  0  0  0
   -3.9091   -9.3125   20.9675 C   0  0  0  0  0  0  0  0  0  0  0  0
   -4.6907  -10.2579   20.2746 C   0  0  0  0  0  0  0  0  0  0  0  0
   -7.0030   -9.7745   21.8356 H   0  0  0  0  0  0  0  0  0  0  0  0
   -6.5940  -11.4848   22.3223 H   0  0  0  0  0  0  0  0  0  0  0  0
   -7.8718  -11.1461   21.1445 H   0  0  0  0  0  0  0  0  0  0  0  0
   -7.1362  -12.0541   19.0923 H   0  0  0  0  0  0  0  0  0  0  0  0
   -2.7848  -10.4439   17.4520 H   0  0  0  0  0  0  0  0  0  0  0  0
    0.3068   -8.5206   19.2409 H   0  0  0  0  0  0  0  0  0  0  0  0
    1.2301   -7.5493   16.8601 H   0  0  0  0  0  0  0  0  0  0  0  0
    0.4771   -6.1164   17.4919 H   0  0  0  0  0  0  0  0  0  0  0  0
    2.4915   -6.6349   19.4522 H   0  0  0  0  0  0  0  0  0  0  0  0
    1.7630   -4.4118   18.2763 H   0  0  0  0  0  0  0  0  0  0  0  0
    3.4376   -4.5226   18.8111 H   0  0  0  0  0  0  0  0  0  0  0  0
    3.0245   -3.6457   16.6632 H   0  0  0  0  0  0  0  0  0  0  0  0
    3.4432   -7.3897   16.8076 H   0  0  0  0  0  0  0  0  0  0  0  0
    5.5877   -7.2598   17.0942 H   0  0  0  0  0  0  0  0  0  0  0  0
    5.0511   -5.6844   17.4970 H   0  0  0  0  0  0  0  0  0  0  0  0
    6.1721   -9.0512   19.1191 H   0  0  0  0  0  0  0  0  0  0  0  0
    7.6065   -8.7035   21.2893 H   0  0  0  0  0  0  0  0  0  0  0  0
    5.6494   -4.8332   20.0306 H   0  0  0  0  0  0  0  0  0  0  0  0
   -2.2332   -7.9361   20.8840 H   0  0  0  0  0  0  0  0  0  0  0  0
   -4.2526   -8.8507   21.8758 H   0  0  0  0  0  0  0  0  0  0  0  0
  1  2  1  0
  2  3  1  0
  3  4  2  0
  4  5  1  0
  5  6  2  0
  6  7  1  0
  7  8  1  0
  8  9  2  0
  8 10  1  0
 10 11  1  0
 11 12  1  0
 12 13  1  0
 13 14  1  0
 12 15  1  0
 15 16  1  0
 16 17  1  0
 17 18  1  0
 18 19  2  0
 19 20  1  0
 20 21  1  0
  7 22  2  0
 22 23  1  0
 23 24  2  0
 24  2  1  0
 24  5  1  0
 21 17  2  0
  1 25  1  0
  1 26  1  0
  1 27  1  0
  3 28  1  0
  6 29  1  0
 10 30  1  0
 11 31  1  0
 11 32  1  0
 12 33  1  0
 13 34  1  0
 13 35  1  0
 14 36  1  0
 15 37  1  0
 16 38  1  0
 16 39  1  0
 18 40  1  0
 19 41  1  0
 21 42  1  0
 22 43  1  0
 23 44  1  0
M  END
>  <Energy>  (231) 
97.508592040595332

>  <compound_id>  (231) 
4923

>  <target_id>  (231) 
1

>  <reference_id>  (231) 
94

>  <inspiration_ids>  (231) 
[94, 76]

>  <energy_score>  (231) 
10.198307256432543

>  <distance_score>  (231) 
16.099630087886336

>  <path>  (231) 
/opt/xchem-fragalysis-2/maxwin/BulkDock/SCRATCH/511018/C4923-P94/C4923-P94.minimised.mol

>  <scratch_subdir>  (231) 
/opt/xchem-fragalysis-2/maxwin/BulkDock/SCRATCH/511018/C4923-P94

>  <fragmenstein_runtime>  (231) 
29.778377294540405

>  <fragmenstein_outcome>  (231) 
too moved

>  <fragmenstein_mode>  (231) 
expansion

>  <fragmenstein_error>  (231) 


$$$$
C4923-P76
     RDKit          3D

 44 46  0  0  0  0  0  0  0  0999 V2000
   -1.9320  -14.5491   31.0084 C   0  0  0  0  0  0  0  0  0  0  0  0
   -1.8417  -15.0062   29.6450 N   0  0  0  0  0  0  0  0  0  0  0  0
   -2.2874  -16.2496   29.2786 C   0  0  0  0  0  0  0  0  0  0  0  0
   -2.4515  -16.3082   27.9832 N   0  0  0  0  0  0  0  0  0  0  0  0
   -2.0794  -15.0378   27.4723 C   0  0  0  0  0  0  0  0  0  0  0  0
   -2.1540  -14.5157   25.9337 C   0  0  0  0  0  0  0  0  0  0  0  0
   -1.2064  -13.6292   25.4183 C   0  0  0  0  0  0  0  0  0  0  0  0
    0.0494  -13.8348   23.7993 C   0  0  0  0  0  0  0  0  0  0  0  0
   -0.2253  -14.3457   22.7414 O   0  0  0  0  0  0  0  0  0  0  0  0
    1.6943  -12.9225   24.1734 N   0  0  0  0  0  0  0  0  0  0  0  0
    3.1677  -12.4605   23.0502 C   0  0  0  0  0  0  0  0  0  0  0  0
    4.5527  -10.9577   22.5007 C   0  0  0  0  0  0  0  0  0  0  0  0
    5.9739  -10.3887   23.4747 C   0  0  0  0  0  0  0  0  0  0  0  0
    7.2876  -10.3264   22.8621 O   0  0  0  0  0  0  0  0  0  0  0  0
    5.7603  -11.0336   21.1720 N   0  0  0  0  0  0  0  0  0  0  0  0
    6.3112   -9.9145   20.2724 C   0  0  0  0  0  0  0  0  0  0  0  0
    6.7473   -8.5437   20.7476 C   0  0  0  0  0  0  0  0  0  0  0  0
    5.9397   -7.3554   20.6512 C   0  0  0  0  0  0  0  0  0  0  0  0
    6.6223   -6.1995   20.9664 C   0  0  0  0  0  0  0  0  0  0  0  0
    8.2380   -6.5154   21.4108 S   0  0  0  0  0  0  0  0  0  0  0  0
    8.0416   -8.1901   21.1106 C   0  0  0  0  0  0  0  0  0  0  0  0
   -0.7379  -12.8495   26.7132 C   0  0  0  0  0  0  0  0  0  0  0  0
   -0.9598  -13.0727   28.1487 C   0  0  0  0  0  0  0  0  0  0  0  0
   -1.5234  -14.2890   28.5003 C   0  0  0  0  0  0  0  0  0  0  0  0
   -2.9315  -14.7688   31.3929 H   0  0  0  0  0  0  0  0  0  0  0  0
   -1.1703  -15.0686   31.5951 H   0  0  0  0  0  0  0  0  0  0  0  0
   -1.7557  -13.4713   31.0403 H   0  0  0  0  0  0  0  0  0  0  0  0
   -2.5297  -17.0326   29.9855 H   0  0  0  0  0  0  0  0  0  0  0  0
   -2.5184  -15.2741   25.2206 H   0  0  0  0  0  0  0  0  0  0  0  0
    1.6527  -12.5117   25.0973 H   0  0  0  0  0  0  0  0  0  0  0  0
    3.6048  -12.7636   23.9667 H   0  0  0  0  0  0  0  0  0  0  0  0
    2.5212  -11.5987   23.0926 H   0  0  0  0  0  0  0  0  0  0  0  0
    3.9810  -10.0106   22.5798 H   0  0  0  0  0  0  0  0  0  0  0  0
    5.7580   -9.3617   23.7847 H   0  0  0  0  0  0  0  0  0  0  0  0
    6.1566  -11.0899   24.2904 H   0  0  0  0  0  0  0  0  0  0  0  0
    7.8366   -9.7700   23.4434 H   0  0  0  0  0  0  0  0  0  0  0  0
    6.6276  -11.3005   21.6633 H   0  0  0  0  0  0  0  0  0  0  0  0
    7.2029  -10.3750   19.8195 H   0  0  0  0  0  0  0  0  0  0  0  0
    5.6726   -9.7627   19.3962 H   0  0  0  0  0  0  0  0  0  0  0  0
    4.9003   -7.3561   20.3394 H   0  0  0  0  0  0  0  0  0  0  0  0
    6.2393   -5.1870   20.9685 H   0  0  0  0  0  0  0  0  0  0  0  0
    8.8927   -8.8516   21.2071 H   0  0  0  0  0  0  0  0  0  0  0  0
    0.0728  -12.1248   26.5975 H   0  0  0  0  0  0  0  0  0  0  0  0
   -0.5032  -12.4177   28.8819 H   0  0  0  0  0  0  0  0  0  0  0  0
  1  2  1  0
  2  3  1  0
  3  4  2  0
  4  5  1  0
  5  6  2  0
  6  7  1  0
  7  8  1  0
  8  9  2  0
  8 10  1  0
 10 11  1  0
 11 12  1  0
 12 13  1  0
 13 14  1  0
 12 15  1  0
 15 16  1  0
 16 17  1  0
 17 18  1  0
 18 19  2  0
 19 20  1  0
 20 21  1  0
  7 22  2  0
 22 23  1  0
 23 24  2  0
 24  2  1  0
 24  5  1  0
 21 17  2  0
  1 25  1  0
  1 26  1  0
  1 27  1  0
  3 28  1  0
  6 29  1  0
 10 30  1  0
 11 31  1  0
 11 32  1  0
 12 33  1  0
 13 34  1  0
 13 35  1  0
 14 36  1  0
 15 37  1  0
 16 38  1  0
 16 39  1  0
 18 40  1  0
 19 41  1  0
 21 42  1  0
 22 43  1  0
 23 44  1  0
M  END
>  <Energy>  (232) 
566.13907360727273

>  <compound_id>  (232) 
4923

>  <target_id>  (232) 
1

>  <reference_id>  (232) 
76

>  <inspiration_ids>  (232) 
[94, 76]

>  <energy_score>  (232) 
478.8287888231172

>  <distance_score>  (232) 
14.161964584503073

>  <path>  (232) 
/opt/xchem-fragalysis-2/maxwin/BulkDock/SCRATCH/511018/C4923-P76/C4923-P76.minimised.mol

>  <scratch_subdir>  (232) 
/opt/xchem-fragalysis-2/maxwin/BulkDock/SCRATCH/511018/C4923-P76

>  <fragmenstein_runtime>  (232) 
11.748466968536377

>  <fragmenstein_outcome>  (232) 
too moved

>  <fragmenstein_mode>  (232) 
expansion

>  <fragmenstein_error>  (232) 


$$$$
C4924-P94
     RDKit          3D

 44 46  0  0  0  0  0  0  0  0999 V2000
   -3.7046  -19.7746   20.1997 C   0  0  0  0  0  0  0  0  0  0  0  0
   -3.5319  -20.2867   21.5829 C   0  0  0  0  0  0  0  0  0  0  0  0
   -4.5286  -20.7522   22.3146 N   0  0  0  0  0  0  0  0  0  0  0  0
   -3.9816  -21.1858   23.4825 C   0  0  0  0  0  0  0  0  0  0  0  0
   -4.6095  -21.8415   24.5588 C   0  0  0  0  0  0  0  0  0  0  0  0
   -3.8678  -22.1547   25.6944 C   0  0  0  0  0  0  0  0  0  0  0  0
   -2.5113  -21.8438   25.7341 C   0  0  0  0  0  0  0  0  0  0  0  0
   -1.8538  -21.2366   24.6435 C   0  0  0  0  0  0  0  0  0  0  0  0
   -2.6123  -20.9097   23.5083 C   0  0  0  0  0  0  0  0  0  0  0  0
   -2.3138  -20.3655   22.2423 N   0  0  0  0  0  0  0  0  0  0  0  0
   -0.9535  -20.1585   21.6766 C   0  0  0  0  0  0  0  0  0  0  0  0
   -0.5555  -19.0759   20.5137 C   0  0  0  0  0  0  0  0  0  0  0  0
    1.0033  -19.0323   20.0247 C   0  0  0  0  0  0  0  0  0  0  0  0
    1.6122  -20.0656   20.1307 O   0  0  0  0  0  0  0  0  0  0  0  0
    1.4241  -17.7098   19.4709 N   0  0  0  0  0  0  0  0  0  0  0  0
    2.7522  -17.2693   18.7577 C   0  0  0  0  0  0  0  0  0  0  0  0
    3.9691  -18.0163   19.2977 C   0  0  0  0  0  0  0  0  0  0  0  0
    3.0062  -15.6752   18.7318 C   0  0  0  0  0  0  0  0  0  0  0  0
    4.3102  -14.9686   18.2858 C   0  0  0  0  0  0  0  0  0  0  0  0
    5.3595  -14.5426   19.1867 C   0  0  0  0  0  0  0  0  0  0  0  0
    6.3187  -13.7415   18.5990 C   0  0  0  0  0  0  0  0  0  0  0  0
    5.9884  -13.4718   16.9491 S   0  0  0  0  0  0  0  0  0  0  0  0
    4.5691  -14.4428   17.0257 C   0  0  0  0  0  0  0  0  0  0  0  0
   -3.3799  -18.7330   20.1258 H   0  0  0  0  0  0  0  0  0  0  0  0
   -4.7604  -19.8106   19.9112 H   0  0  0  0  0  0  0  0  0  0  0  0
   -3.1475  -20.3874   19.4855 H   0  0  0  0  0  0  0  0  0  0  0  0
   -5.6531  -22.1156   24.4807 H   0  0  0  0  0  0  0  0  0  0  0  0
   -4.3428  -22.6530   26.5338 H   0  0  0  0  0  0  0  0  0  0  0  0
   -1.9328  -22.1032   26.6196 H   0  0  0  0  0  0  0  0  0  0  0  0
   -0.7848  -21.0537   24.6860 H   0  0  0  0  0  0  0  0  0  0  0  0
   -0.6723  -21.1494   21.2965 H   0  0  0  0  0  0  0  0  0  0  0  0
   -0.3004  -19.9611   22.5332 H   0  0  0  0  0  0  0  0  0  0  0  0
   -0.8558  -18.0736   20.8110 H   0  0  0  0  0  0  0  0  0  0  0  0
   -1.1151  -19.3273   19.6074 H   0  0  0  0  0  0  0  0  0  0  0  0
    0.6264  -17.0827   19.4629 H   0  0  0  0  0  0  0  0  0  0  0  0
    2.6053  -17.5866   17.7178 H   0  0  0  0  0  0  0  0  0  0  0  0
    4.1926  -17.7549   20.3339 H   0  0  0  0  0  0  0  0  0  0  0  0
    3.8221  -19.0991   19.2496 H   0  0  0  0  0  0  0  0  0  0  0  0
    4.8578  -17.7887   18.6998 H   0  0  0  0  0  0  0  0  0  0  0  0
    2.2124  -15.2641   18.0954 H   0  0  0  0  0  0  0  0  0  0  0  0
    2.8181  -15.3173   19.7496 H   0  0  0  0  0  0  0  0  0  0  0  0
    5.3795  -14.7936   20.2404 H   0  0  0  0  0  0  0  0  0  0  0  0
    7.1878  -13.2976   19.0649 H   0  0  0  0  0  0  0  0  0  0  0  0
    3.9634  -14.5419   16.1351 H   0  0  0  0  0  0  0  0  0  0  0  0
  1  2  1  0
  2  3  2  0
  3  4  1  0
  4  5  2  0
  5  6  1  0
  6  7  2  0
  7  8  1  0
  8  9  2  0
  9 10  1  0
 10 11  1  0
 11 12  1  0
 12 13  1  0
 13 14  2  0
 13 15  1  0
 15 16  1  0
 16 17  1  0
 16 18  1  0
 18 19  1  0
 19 20  1  0
 20 21  2  0
 21 22  1  0
 22 23  1  0
 10  2  1  0
 23 19  2  0
  9  4  1  0
  1 24  1  0
  1 25  1  0
  1 26  1  0
  5 27  1  0
  6 28  1  0
  7 29  1  0
  8 30  1  0
 11 31  1  0
 11 32  1  0
 12 33  1  0
 12 34  1  0
 15 35  1  0
 16 36  1  0
 17 37  1  0
 17 38  1  0
 17 39  1  0
 18 40  1  0
 18 41  1  0
 20 42  1  0
 21 43  1  0
 23 44  1  0
M  END
>  <Energy>  (233) 
46.992338322957551

>  <compound_id>  (233) 
4924

>  <target_id>  (233) 
1

>  <reference_id>  (233) 
94

>  <inspiration_ids>  (233) 
[94, 76]

>  <energy_score>  (233) 
4.97426265611864

>  <distance_score>  (233) 
13.965519686256368

>  <path>  (233) 
/opt/xchem-fragalysis-2/maxwin/BulkDock/SCRATCH/511018/C4924-P94/C4924-P94.minimised.mol

>  <scratch_subdir>  (233) 
/opt/xchem-fragalysis-2/maxwin/BulkDock/SCRATCH/511018/C4924-P94

>  <fragmenstein_runtime>  (233) 
51.7562530040741

>  <fragmenstein_outcome>  (233) 
too moved

>  <fragmenstein_mode>  (233) 
expansion

>  <fragmenstein_error>  (233) 


$$$$
C4924-P76
     RDKit          3D

 44 46  0  0  0  0  0  0  0  0999 V2000
   -8.2119  -15.8678   24.1646 C   0  0  0  0  0  0  0  0  0  0  0  0
   -8.8508  -15.4979   25.4542 C   0  0  0  0  0  0  0  0  0  0  0  0
   -9.5178  -16.3774   26.1797 N   0  0  0  0  0  0  0  0  0  0  0  0
  -10.0394  -15.6973   27.2345 C   0  0  0  0  0  0  0  0  0  0  0  0
  -10.8974  -16.1443   28.2508 C   0  0  0  0  0  0  0  0  0  0  0  0
  -11.3421  -15.2444   29.2151 C   0  0  0  0  0  0  0  0  0  0  0  0
  -10.8890  -13.9321   29.1980 C   0  0  0  0  0  0  0  0  0  0  0  0
  -10.0251  -13.4667   28.1959 C   0  0  0  0  0  0  0  0  0  0  0  0
   -9.6347  -14.3671   27.1978 C   0  0  0  0  0  0  0  0  0  0  0  0
   -8.8811  -14.2319   26.0289 N   0  0  0  0  0  0  0  0  0  0  0  0
   -8.2994  -12.9393   25.5709 C   0  0  0  0  0  0  0  0  0  0  0  0
   -7.9188  -12.7654   24.0757 C   0  0  0  0  0  0  0  0  0  0  0  0
   -7.4508  -11.4699   23.2587 C   0  0  0  0  0  0  0  0  0  0  0  0
   -8.2758  -10.7124   22.7969 O   0  0  0  0  0  0  0  0  0  0  0  0
   -5.8718  -11.4875   23.1155 N   0  0  0  0  0  0  0  0  0  0  0  0
   -4.5620  -10.3282   21.9733 C   0  0  0  0  0  0  0  0  0  0  0  0
   -3.7458  -11.0906   20.6085 C   0  0  0  0  0  0  0  0  0  0  0  0
   -3.4972   -8.7826   22.0691 C   0  0  0  0  0  0  0  0  0  0  0  0
   -2.0105   -8.8605   21.8753 C   0  0  0  0  0  0  0  0  0  0  0  0
   -1.3435   -9.1169   20.6428 C   0  0  0  0  0  0  0  0  0  0  0  0
   -0.0682   -8.5951   20.6002 C   0  0  0  0  0  0  0  0  0  0  0  0
    0.4042   -8.0367   22.0748 S   0  0  0  0  0  0  0  0  0  0  0  0
   -1.1219   -8.2508   22.7060 C   0  0  0  0  0  0  0  0  0  0  0  0
   -7.1284  -15.7528   24.2071 H   0  0  0  0  0  0  0  0  0  0  0  0
   -8.4121  -16.9181   23.9308 H   0  0  0  0  0  0  0  0  0  0  0  0
   -8.6211  -15.2912   23.3324 H   0  0  0  0  0  0  0  0  0  0  0  0
  -11.2359  -17.1656   28.2897 H   0  0  0  0  0  0  0  0  0  0  0  0
  -12.0363  -15.5674   29.9867 H   0  0  0  0  0  0  0  0  0  0  0  0
  -11.2263  -13.2420   29.9695 H   0  0  0  0  0  0  0  0  0  0  0  0
   -9.7045  -12.4298   28.1880 H   0  0  0  0  0  0  0  0  0  0  0  0
   -7.4234  -12.7710   26.2050 H   0  0  0  0  0  0  0  0  0  0  0  0
   -9.0405  -12.1707   25.8187 H   0  0  0  0  0  0  0  0  0  0  0  0
   -8.8120  -13.0721   23.5098 H   0  0  0  0  0  0  0  0  0  0  0  0
   -7.1773  -13.5228   23.8200 H   0  0  0  0  0  0  0  0  0  0  0  0
   -5.5005  -12.3116   23.5661 H   0  0  0  0  0  0  0  0  0  0  0  0
   -3.7574  -10.3955   22.7385 H   0  0  0  0  0  0  0  0  0  0  0  0
   -4.3275  -11.8486   20.1155 H   0  0  0  0  0  0  0  0  0  0  0  0
   -3.5002  -10.3681   19.8369 H   0  0  0  0  0  0  0  0  0  0  0  0
   -2.7671  -11.4892   20.8903 H   0  0  0  0  0  0  0  0  0  0  0  0
   -4.0387   -8.0146   22.5845 H   0  0  0  0  0  0  0  0  0  0  0  0
   -3.5486   -8.1786   21.1446 H   0  0  0  0  0  0  0  0  0  0  0  0
   -1.8102   -9.4271   19.7195 H   0  0  0  0  0  0  0  0  0  0  0  0
    0.5461   -8.4475   19.7235 H   0  0  0  0  0  0  0  0  0  0  0  0
   -1.3384   -7.7696   23.6543 H   0  0  0  0  0  0  0  0  0  0  0  0
  1  2  1  0
  2  3  2  0
  3  4  1  0
  4  5  2  0
  5  6  1  0
  6  7  2  0
  7  8  1  0
  8  9  2  0
  9 10  1  0
 10 11  1  0
 11 12  1  0
 12 13  1  0
 13 14  2  0
 13 15  1  0
 15 16  1  0
 16 17  1  0
 16 18  1  0
 18 19  1  0
 19 20  1  0
 20 21  2  0
 21 22  1  0
 22 23  1  0
 10  2  1  0
 23 19  2  0
  9  4  1  0
  1 24  1  0
  1 25  1  0
  1 26  1  0
  5 27  1  0
  6 28  1  0
  7 29  1  0
  8 30  1  0
 11 31  1  0
 11 32  1  0
 12 33  1  0
 12 34  1  0
 15 35  1  0
 16 36  1  0
 17 37  1  0
 17 38  1  0
 17 39  1  0
 18 40  1  0
 18 41  1  0
 20 42  1  0
 21 43  1  0
 23 44  1  0
M  END
>  <Energy>  (234) 
285.56080927895778

>  <compound_id>  (234) 
4924

>  <target_id>  (234) 
1

>  <reference_id>  (234) 
76

>  <inspiration_ids>  (234) 
[94, 76]

>  <energy_score>  (234) 
243.5427336121288

>  <distance_score>  (234) 
13.925370007593774

>  <path>  (234) 
/opt/xchem-fragalysis-2/maxwin/BulkDock/SCRATCH/511018/C4924-P76/C4924-P76.minimised.mol

>  <scratch_subdir>  (234) 
/opt/xchem-fragalysis-2/maxwin/BulkDock/SCRATCH/511018/C4924-P76

>  <fragmenstein_runtime>  (234) 
31.720911026000977

>  <fragmenstein_outcome>  (234) 
too moved

>  <fragmenstein_mode>  (234) 
expansion

>  <fragmenstein_error>  (234) 


$$$$
C4928-P94
     RDKit          3D

 34 36  0  0  0  0  0  0  0  0999 V2000
   -4.4104  -14.5193   17.3724 C   0  0  0  0  0  0  0  0  0  0  0  0
   -3.1794  -15.1473   18.0409 C   0  0  0  0  0  0  0  0  0  0  0  0
   -3.4486  -16.6926   18.1318 C   0  0  0  0  0  0  0  0  0  0  0  0
   -2.8179  -17.5400   17.5129 O   0  0  0  0  0  0  0  0  0  0  0  0
   -4.5476  -17.0219   18.9635 O   0  0  0  0  0  0  0  0  0  0  0  0
   -4.9206  -18.4500   18.9292 C   0  0  0  0  0  0  0  0  0  0  0  0
   -6.0802  -18.9165   19.8645 C   0  0  0  0  0  0  0  0  0  0  0  0
   -6.5130  -20.1763   19.9157 N   0  0  0  0  0  0  0  0  0  0  0  0
   -7.6348  -20.1994   20.7112 C   0  0  0  0  0  0  0  0  0  0  0  0
   -8.5259  -21.2570   20.9799 C   0  0  0  0  0  0  0  0  0  0  0  0
   -9.7237  -20.9825   21.6513 C   0  0  0  0  0  0  0  0  0  0  0  0
   -9.9912  -19.6898   22.1087 C   0  0  0  0  0  0  0  0  0  0  0  0
   -9.0494  -18.6577   21.9526 C   0  0  0  0  0  0  0  0  0  0  0  0
   -9.3664  -17.0957   22.5896 Cl  0  0  0  0  0  0  0  0  0  0  0  0
   -7.8908  -18.9328   21.2153 C   0  0  0  0  0  0  0  0  0  0  0  0
   -6.8236  -18.1675   20.7628 N   0  0  0  0  0  0  0  0  0  0  0  0
   -1.8424  -14.5872   17.3524 C   0  0  0  0  0  0  0  0  0  0  0  0
   -1.6034  -13.1670   17.0657 C   0  0  0  0  0  0  0  0  0  0  0  0
   -0.3490  -12.8831   16.5597 C   0  0  0  0  0  0  0  0  0  0  0  0
    0.5841  -14.2964   16.3791 S   0  0  0  0  0  0  0  0  0  0  0  0
   -0.6922  -15.2833   16.9995 C   0  0  0  0  0  0  0  0  0  0  0  0
   -5.3447  -14.8829   17.8126 H   0  0  0  0  0  0  0  0  0  0  0  0
   -4.4111  -13.4296   17.4741 H   0  0  0  0  0  0  0  0  0  0  0  0
   -4.4364  -14.7585   16.3031 H   0  0  0  0  0  0  0  0  0  0  0  0
   -3.1093  -14.8031   19.0808 H   0  0  0  0  0  0  0  0  0  0  0  0
   -4.0359  -19.0498   19.1715 H   0  0  0  0  0  0  0  0  0  0  0  0
   -5.2332  -18.6783   17.9031 H   0  0  0  0  0  0  0  0  0  0  0  0
   -8.3149  -22.2473   20.5895 H   0  0  0  0  0  0  0  0  0  0  0  0
  -10.4491  -21.7772   21.8065 H   0  0  0  0  0  0  0  0  0  0  0  0
  -10.9396  -19.4982   22.6032 H   0  0  0  0  0  0  0  0  0  0  0  0
   -6.6577  -17.1975   21.0029 H   0  0  0  0  0  0  0  0  0  0  0  0
   -2.3285  -12.3860   17.2604 H   0  0  0  0  0  0  0  0  0  0  0  0
    0.0569  -11.9182   16.2891 H   0  0  0  0  0  0  0  0  0  0  0  0
   -0.5138  -16.3477   17.0883 H   0  0  0  0  0  0  0  0  0  0  0  0
  1  2  1  0
  2  3  1  0
  3  4  2  0
  3  5  1  0
  5  6  1  0
  6  7  1  0
  7  8  2  0
  8  9  1  0
  9 10  2  0
 10 11  1  0
 11 12  2  0
 12 13  1  0
 13 14  1  0
 13 15  2  0
 15 16  1  0
  2 17  1  0
 17 18  1  0
 18 19  2  0
 19 20  1  0
 20 21  1  0
 16  7  1  0
 21 17  2  0
 15  9  1  0
  1 22  1  0
  1 23  1  0
  1 24  1  0
  2 25  1  0
  6 26  1  0
  6 27  1  0
 10 28  1  0
 11 29  1  0
 12 30  1  0
 16 31  1  0
 18 32  1  0
 19 33  1  0
 21 34  1  0
M  END
>  <Energy>  (235) 
42.88016279967303

>  <compound_id>  (235) 
4928

>  <target_id>  (235) 
1

>  <reference_id>  (235) 
94

>  <inspiration_ids>  (235) 
[94, 76]

>  <energy_score>  (235) 
-27.571680107923044

>  <distance_score>  (235) 
15.411732784327816

>  <path>  (235) 
/opt/xchem-fragalysis-2/maxwin/BulkDock/SCRATCH/511018/C4928-P94/C4928-P94.minimised.mol

>  <scratch_subdir>  (235) 
/opt/xchem-fragalysis-2/maxwin/BulkDock/SCRATCH/511018/C4928-P94

>  <fragmenstein_runtime>  (235) 
24.567095041275024

>  <fragmenstein_outcome>  (235) 
too moved

>  <fragmenstein_mode>  (235) 
expansion

>  <fragmenstein_error>  (235) 


$$$$
C4928-P76
     RDKit          3D

 34 36  0  0  0  0  0  0  0  0999 V2000
    6.3593   -7.6588   19.5680 C   0  0  0  0  0  0  0  0  0  0  0  0
    7.6141   -8.4575   20.0045 C   0  0  0  0  0  0  0  0  0  0  0  0
    7.2375   -9.2541   21.3813 C   0  0  0  0  0  0  0  0  0  0  0  0
    7.8075  -10.2979   21.6945 O   0  0  0  0  0  0  0  0  0  0  0  0
    6.2613   -8.6685   22.2246 O   0  0  0  0  0  0  0  0  0  0  0  0
    5.6553   -9.5755   23.2506 C   0  0  0  0  0  0  0  0  0  0  0  0
    4.9412   -8.9583   24.5211 C   0  0  0  0  0  0  0  0  0  0  0  0
    3.7506   -8.3649   24.6280 N   0  0  0  0  0  0  0  0  0  0  0  0
    3.4067   -8.3203   25.9831 C   0  0  0  0  0  0  0  0  0  0  0  0
    2.2271   -7.8957   26.6342 C   0  0  0  0  0  0  0  0  0  0  0  0
    1.9804   -8.2776   27.9684 C   0  0  0  0  0  0  0  0  0  0  0  0
    2.9471   -8.9731   28.6876 C   0  0  0  0  0  0  0  0  0  0  0  0
    4.1920   -9.2527   28.1032 C   0  0  0  0  0  0  0  0  0  0  0  0
    5.4115  -10.0704   28.9968 Cl  0  0  0  0  0  0  0  0  0  0  0  0
    4.3907   -8.9301   26.7454 C   0  0  0  0  0  0  0  0  0  0  0  0
    5.3818   -9.2434   25.8206 N   0  0  0  0  0  0  0  0  0  0  0  0
    9.3074   -7.6394   19.8172 C   0  0  0  0  0  0  0  0  0  0  0  0
    9.5117   -5.6868   19.6238 C   0  0  0  0  0  0  0  0  0  0  0  0
    9.2405   -4.5449   20.2529 C   0  0  0  0  0  0  0  0  0  0  0  0
   11.4570   -5.2895   20.3908 S   0  0  0  0  0  0  0  0  0  0  0  0
    9.8373   -5.9937   19.0340 C   0  0  0  0  0  0  0  0  0  0  0  0
    6.0596   -6.9231   20.3225 H   0  0  0  0  0  0  0  0  0  0  0  0
    5.5118   -8.3451   19.4547 H   0  0  0  0  0  0  0  0  0  0  0  0
    6.4706   -7.1243   18.6242 H   0  0  0  0  0  0  0  0  0  0  0  0
    7.7451   -9.2833   19.2867 H   0  0  0  0  0  0  0  0  0  0  0  0
    4.8807  -10.1355   22.7171 H   0  0  0  0  0  0  0  0  0  0  0  0
    6.4248  -10.2648   23.6143 H   0  0  0  0  0  0  0  0  0  0  0  0
    1.4644   -7.3749   26.0610 H   0  0  0  0  0  0  0  0  0  0  0  0
    1.0356   -8.0105   28.4365 H   0  0  0  0  0  0  0  0  0  0  0  0
    2.7546   -9.2522   29.7210 H   0  0  0  0  0  0  0  0  0  0  0  0
    6.2131   -9.7727   26.0401 H   0  0  0  0  0  0  0  0  0  0  0  0
    8.3210   -5.0424   19.8472 H   0  0  0  0  0  0  0  0  0  0  0  0
    9.3354   -3.5403   20.4298 H   0  0  0  0  0  0  0  0  0  0  0  0
   10.4945   -5.6369   18.0783 H   0  0  0  0  0  0  0  0  0  0  0  0
  1  2  1  0
  2  3  1  0
  3  4  2  0
  3  5  1  0
  5  6  1  0
  6  7  1  0
  7  8  2  0
  8  9  1  0
  9 10  2  0
 10 11  1  0
 11 12  2  0
 12 13  1  0
 13 14  1  0
 13 15  2  0
 15 16  1  0
  2 17  1  0
 17 18  1  0
 18 19  2  0
 19 20  1  0
 20 21  1  0
 16  7  1  0
 21 17  2  0
 15  9  1  0
  1 22  1  0
  1 23  1  0
  1 24  1  0
  2 25  1  0
  6 26  1  0
  6 27  1  0
 10 28  1  0
 11 29  1  0
 12 30  1  0
 16 31  1  0
 18 32  1  0
 19 33  1  0
 21 34  1  0
M  END
>  <Energy>  (236) 
759.39632457423272

>  <compound_id>  (236) 
4928

>  <target_id>  (236) 
1

>  <reference_id>  (236) 
76

>  <inspiration_ids>  (236) 
[94, 76]

>  <energy_score>  (236) 
688.9444816666455

>  <distance_score>  (236) 
17.909016492665806

>  <path>  (236) 
/opt/xchem-fragalysis-2/maxwin/BulkDock/SCRATCH/511018/C4928-P76/C4928-P76.minimised.mol

>  <scratch_subdir>  (236) 
/opt/xchem-fragalysis-2/maxwin/BulkDock/SCRATCH/511018/C4928-P76

>  <fragmenstein_runtime>  (236) 
11.791591167449951

>  <fragmenstein_outcome>  (236) 
too moved

>  <fragmenstein_mode>  (236) 
expansion

>  <fragmenstein_error>  (236) 


$$$$
C4929-P94
     RDKit          3D

 38 41  0  0  0  0  0  0  0  0999 V2000
   -2.9102  -21.8304   27.3233 C   0  0  0  0  0  0  0  0  0  0  0  0
   -1.9702  -20.9750   26.9909 N   0  0  0  0  0  0  0  0  0  0  0  0
   -2.5754  -19.7269   26.9739 C   0  0  0  0  0  0  0  0  0  0  0  0
   -1.9097  -18.2903   26.5519 C   0  0  0  0  0  0  0  0  0  0  0  0
   -2.4882  -16.9739   26.5839 C   0  0  0  0  0  0  0  0  0  0  0  0
   -2.2071  -15.3864   25.3155 C   0  0  0  0  0  0  0  0  0  0  0  0
   -0.7787  -14.2927   24.6310 N   0  0  0  0  0  0  0  0  0  0  0  0
   -0.1927  -13.7968   23.1380 C   0  0  0  0  0  0  0  0  0  0  0  0
    0.6301  -11.8886   22.8829 C   0  0  0  0  0  0  0  0  0  0  0  0
    2.1935  -12.0888   23.5655 O   0  0  0  0  0  0  0  0  0  0  0  0
    2.4710  -13.2892   24.3874 C   0  0  0  0  0  0  0  0  0  0  0  0
    4.0196  -14.2147   25.0520 C   0  0  0  0  0  0  0  0  0  0  0  0
    4.6820  -14.3414   26.4099 C   0  0  0  0  0  0  0  0  0  0  0  0
    5.9316  -14.9285   26.4365 C   0  0  0  0  0  0  0  0  0  0  0  0
    6.1739  -15.8461   25.0438 S   0  0  0  0  0  0  0  0  0  0  0  0
    4.6630  -15.3116   24.4325 C   0  0  0  0  0  0  0  0  0  0  0  0
    0.9195  -13.7129   25.4321 C   0  0  0  0  0  0  0  0  0  0  0  0
   -3.5857  -17.2557   27.6127 C   0  0  0  0  0  0  0  0  0  0  0  0
   -4.5795  -18.6525   27.9660 C   0  0  0  0  0  0  0  0  0  0  0  0
   -3.8982  -19.8705   27.5507 C   0  0  0  0  0  0  0  0  0  0  0  0
   -4.0921  -21.2130   27.6046 N   0  0  0  0  0  0  0  0  0  0  0  0
   -2.7933  -22.9045   27.3645 H   0  0  0  0  0  0  0  0  0  0  0  0
   -0.8389  -18.3278   26.4231 H   0  0  0  0  0  0  0  0  0  0  0  0
   -2.3886  -14.5813   26.0180 H   0  0  0  0  0  0  0  0  0  0  0  0
   -2.8589  -15.5623   24.4705 H   0  0  0  0  0  0  0  0  0  0  0  0
    0.7249  -14.3324   23.2744 H   0  0  0  0  0  0  0  0  0  0  0  0
   -0.4913  -14.4727   22.3474 H   0  0  0  0  0  0  0  0  0  0  0  0
    0.0319  -10.9469   22.7432 H   0  0  0  0  0  0  0  0  0  0  0  0
    1.0364  -11.4768   22.0192 H   0  0  0  0  0  0  0  0  0  0  0  0
    2.6188  -13.9668   23.5323 H   0  0  0  0  0  0  0  0  0  0  0  0
    4.3004  -13.9516   27.3456 H   0  0  0  0  0  0  0  0  0  0  0  0
    6.6193  -14.9872   27.2687 H   0  0  0  0  0  0  0  0  0  0  0  0
    4.2857  -15.7895   23.5608 H   0  0  0  0  0  0  0  0  0  0  0  0
    1.1414  -13.8852   26.4680 H   0  0  0  0  0  0  0  0  0  0  0  0
    0.7445  -14.5463   24.8420 H   0  0  0  0  0  0  0  0  0  0  0  0
   -3.7729  -16.5149   28.3770 H   0  0  0  0  0  0  0  0  0  0  0  0
   -5.3733  -18.6175   28.7028 H   0  0  0  0  0  0  0  0  0  0  0  0
   -4.9426  -21.6986   27.8132 H   0  0  0  0  0  0  0  0  0  0  0  0
  1  2  2  0
  2  3  1  0
  3  4  2  0
  4  5  1  0
  5  6  1  0
  6  7  1  0
  7  8  1  0
  8  9  1  0
  9 10  1  0
 10 11  1  0
 11 12  1  0
 12 13  1  0
 13 14  2  0
 14 15  1  0
 15 16  1  0
 11 17  1  0
  5 18  2  0
 18 19  1  0
 19 20  2  0
 20 21  1  0
 21  1  1  0
 20  3  1  0
 17  7  1  0
 16 12  2  0
  1 22  1  0
  4 23  1  0
  6 24  1  0
  6 25  1  0
  8 26  1  0
  8 27  1  0
  9 28  1  0
  9 29  1  0
 11 30  1  0
 13 31  1  0
 14 32  1  0
 16 33  1  0
 17 34  1  0
 17 35  1  0
 18 36  1  0
 19 37  1  0
 21 38  1  0
M  END
>  <Energy>  (237) 
827.03876985380634

>  <compound_id>  (237) 
4929

>  <target_id>  (237) 
1

>  <reference_id>  (237) 
94

>  <inspiration_ids>  (237) 
[94, 76]

>  <energy_score>  (237) 
678.0984933229361

>  <distance_score>  (237) 
14.067608033640848

>  <path>  (237) 
/opt/xchem-fragalysis-2/maxwin/BulkDock/SCRATCH/511018/C4929-P94/C4929-P94.minimised.mol

>  <scratch_subdir>  (237) 
/opt/xchem-fragalysis-2/maxwin/BulkDock/SCRATCH/511018/C4929-P94

>  <fragmenstein_runtime>  (237) 
17.031601428985596

>  <fragmenstein_outcome>  (237) 
too moved

>  <fragmenstein_mode>  (237) 
expansion

>  <fragmenstein_error>  (237) 


$$$$
C4929-P76
     RDKit          3D

 38 41  0  0  0  0  0  0  0  0999 V2000
   -2.1720  -18.2320   26.8990 C   0  0  0  0  0  0  0  0  0  0  0  0
   -2.0563  -17.8078   25.6913 N   0  0  0  0  0  0  0  0  0  0  0  0
   -2.6544  -16.4881   25.6928 C   0  0  0  0  0  0  0  0  0  0  0  0
   -2.3203  -15.3882   24.7162 C   0  0  0  0  0  0  0  0  0  0  0  0
   -1.3601  -14.2457   24.8965 C   0  0  0  0  0  0  0  0  0  0  0  0
   -0.1704  -13.6928   23.4055 C   0  0  0  0  0  0  0  0  0  0  0  0
    0.7878  -11.9221   22.9555 N   0  0  0  0  0  0  0  0  0  0  0  0
    0.1863  -10.4843   21.9656 C   0  0  0  0  0  0  0  0  0  0  0  0
    1.2702   -9.0962   21.4200 C   0  0  0  0  0  0  0  0  0  0  0  0
    2.7569   -8.8757   21.9794 O   0  0  0  0  0  0  0  0  0  0  0  0
    3.6896  -10.1625   22.5214 C   0  0  0  0  0  0  0  0  0  0  0  0
    5.4604  -10.0977   22.0980 C   0  0  0  0  0  0  0  0  0  0  0  0
    6.1288   -9.5184   20.9058 C   0  0  0  0  0  0  0  0  0  0  0  0
    7.4768   -9.7912   20.8097 C   0  0  0  0  0  0  0  0  0  0  0  0
    8.0694  -10.4545   22.2534 S   0  0  0  0  0  0  0  0  0  0  0  0
    6.5148  -10.3560   22.9827 C   0  0  0  0  0  0  0  0  0  0  0  0
    2.6419  -11.7729   23.0923 C   0  0  0  0  0  0  0  0  0  0  0  0
   -1.6818  -13.6488   26.2570 C   0  0  0  0  0  0  0  0  0  0  0  0
   -1.9702  -14.6195   27.3998 C   0  0  0  0  0  0  0  0  0  0  0  0
   -2.3537  -16.0635   27.1465 C   0  0  0  0  0  0  0  0  0  0  0  0
   -2.8639  -17.2277   27.5288 N   0  0  0  0  0  0  0  0  0  0  0  0
   -2.2020  -19.2823   27.1533 H   0  0  0  0  0  0  0  0  0  0  0  0
   -2.9913  -15.3694   23.8720 H   0  0  0  0  0  0  0  0  0  0  0  0
   -0.2974  -14.3175   22.5382 H   0  0  0  0  0  0  0  0  0  0  0  0
    0.6918  -14.0940   23.9586 H   0  0  0  0  0  0  0  0  0  0  0  0
   -0.5794  -10.7007   21.2061 H   0  0  0  0  0  0  0  0  0  0  0  0
   -0.4903   -9.9350   22.5965 H   0  0  0  0  0  0  0  0  0  0  0  0
    1.3540   -8.9976   20.3401 H   0  0  0  0  0  0  0  0  0  0  0  0
    0.7498   -8.1876   21.7552 H   0  0  0  0  0  0  0  0  0  0  0  0
    4.1094   -9.5806   23.2785 H   0  0  0  0  0  0  0  0  0  0  0  0
    5.6518   -9.0064   20.0768 H   0  0  0  0  0  0  0  0  0  0  0  0
    8.1329   -9.5808   19.9755 H   0  0  0  0  0  0  0  0  0  0  0  0
    6.4651  -10.6626   24.0141 H   0  0  0  0  0  0  0  0  0  0  0  0
    2.7887  -12.2986   24.0236 H   0  0  0  0  0  0  0  0  0  0  0  0
    3.1466  -12.4675   22.4165 H   0  0  0  0  0  0  0  0  0  0  0  0
   -1.2625  -12.6923   26.5645 H   0  0  0  0  0  0  0  0  0  0  0  0
   -1.7511  -14.3069   28.4243 H   0  0  0  0  0  0  0  0  0  0  0  0
   -3.8370  -17.3575   27.7503 H   0  0  0  0  0  0  0  0  0  0  0  0
  1  2  2  0
  2  3  1  0
  3  4  2  0
  4  5  1  0
  5  6  1  0
  6  7  1  0
  7  8  1  0
  8  9  1  0
  9 10  1  0
 10 11  1  0
 11 12  1  0
 12 13  1  0
 13 14  2  0
 14 15  1  0
 15 16  1  0
 11 17  1  0
  5 18  2  0
 18 19  1  0
 19 20  2  0
 20 21  1  0
 21  1  1  0
 20  3  1  0
 17  7  1  0
 16 12  2  0
  1 22  1  0
  4 23  1  0
  6 24  1  0
  6 25  1  0
  8 26  1  0
  8 27  1  0
  9 28  1  0
  9 29  1  0
 11 30  1  0
 13 31  1  0
 14 32  1  0
 16 33  1  0
 17 34  1  0
 17 35  1  0
 18 36  1  0
 19 37  1  0
 21 38  1  0
M  END
>  <Energy>  (238) 
701.15235982360173

>  <compound_id>  (238) 
4929

>  <target_id>  (238) 
1

>  <reference_id>  (238) 
76

>  <inspiration_ids>  (238) 
[94, 76]

>  <energy_score>  (238) 
552.2120832927334

>  <distance_score>  (238) 
13.049824354750296

>  <path>  (238) 
/opt/xchem-fragalysis-2/maxwin/BulkDock/SCRATCH/511018/C4929-P76/C4929-P76.minimised.mol

>  <scratch_subdir>  (238) 
/opt/xchem-fragalysis-2/maxwin/BulkDock/SCRATCH/511018/C4929-P76

>  <fragmenstein_runtime>  (238) 
13.96556043624878

>  <fragmenstein_outcome>  (238) 
too moved

>  <fragmenstein_mode>  (238) 
expansion

>  <fragmenstein_error>  (238) 


$$$$
C4930-P94
     RDKit          3D

 45 48  0  0  0  0  0  0  0  0999 V2000
   -2.4972  -13.3828   25.6647 O   0  0  0  0  0  0  0  0  0  0  0  0
   -1.6813  -14.2074   25.7154 C   0  0  0  0  0  0  0  0  0  0  0  0
   -1.9486  -15.5269   27.1967 N   0  0  0  0  0  0  0  0  0  0  0  0
   -3.3145  -15.7956   28.4527 C   0  0  0  0  0  0  0  0  0  0  0  0
   -5.1370  -16.3844   29.2831 C   0  0  0  0  0  0  0  0  0  0  0  0
   -6.1511  -16.0487   30.5515 C   0  0  0  0  0  0  0  0  0  0  0  0
   -6.2413  -16.7384   31.6836 N   0  0  0  0  0  0  0  0  0  0  0  0
   -7.2994  -16.2673   32.3923 C   0  0  0  0  0  0  0  0  0  0  0  0
   -7.7384  -16.6168   33.6801 C   0  0  0  0  0  0  0  0  0  0  0  0
   -8.9003  -16.0073   34.1566 C   0  0  0  0  0  0  0  0  0  0  0  0
   -9.5784  -15.0556   33.3839 C   0  0  0  0  0  0  0  0  0  0  0  0
   -9.1295  -14.6717   32.1117 C   0  0  0  0  0  0  0  0  0  0  0  0
   -7.9758  -15.3036   31.6457 C   0  0  0  0  0  0  0  0  0  0  0  0
   -7.2507  -15.1999   30.4749 N   0  0  0  0  0  0  0  0  0  0  0  0
   -0.2656  -14.1194   24.2860 N   0  0  0  0  0  0  0  0  0  0  0  0
   -0.1676  -12.9006   22.7045 C   0  0  0  0  0  0  0  0  0  0  0  0
    0.3451  -11.1151   22.3380 C   0  0  0  0  0  0  0  0  0  0  0  0
    1.7708  -11.5577   22.3848 O   0  0  0  0  0  0  0  0  0  0  0  0
    2.8074  -11.5548   23.3438 C   0  0  0  0  0  0  0  0  0  0  0  0
    4.3836   -9.9544   23.3488 C   0  0  0  0  0  0  0  0  0  0  0  0
    5.5661   -9.1314   24.7724 C   0  0  0  0  0  0  0  0  0  0  0  0
    6.6479   -8.2306   24.8758 C   0  0  0  0  0  0  0  0  0  0  0  0
    6.2390   -6.9464   23.8332 S   0  0  0  0  0  0  0  0  0  0  0  0
    4.4442   -8.1160   23.1736 C   0  0  0  0  0  0  0  0  0  0  0  0
    1.6499  -13.0856   24.3373 C   0  0  0  0  0  0  0  0  0  0  0  0
   -1.2248  -16.1019   27.2299 H   0  0  0  0  0  0  0  0  0  0  0  0
   -2.8672  -15.2735   29.3432 H   0  0  0  0  0  0  0  0  0  0  0  0
   -3.2224  -16.7848   28.0117 H   0  0  0  0  0  0  0  0  0  0  0  0
   -5.9170  -15.7604   28.7874 H   0  0  0  0  0  0  0  0  0  0  0  0
   -5.5200  -17.3764   29.0780 H   0  0  0  0  0  0  0  0  0  0  0  0
   -7.2112  -17.3733   34.2492 H   0  0  0  0  0  0  0  0  0  0  0  0
   -9.2939  -16.2886   35.1298 H   0  0  0  0  0  0  0  0  0  0  0  0
  -10.4932  -14.6157   33.7771 H   0  0  0  0  0  0  0  0  0  0  0  0
   -9.6642  -13.9354   31.5230 H   0  0  0  0  0  0  0  0  0  0  0  0
   -7.4664  -14.5909   29.6985 H   0  0  0  0  0  0  0  0  0  0  0  0
   -1.0311  -12.1840   22.0046 H   0  0  0  0  0  0  0  0  0  0  0  0
    0.4733  -12.1559   23.1283 H   0  0  0  0  0  0  0  0  0  0  0  0
   -0.1369  -10.2504   22.7918 H   0  0  0  0  0  0  0  0  0  0  0  0
    0.1732  -10.6868   21.3317 H   0  0  0  0  0  0  0  0  0  0  0  0
    3.4910  -12.2565   22.8289 H   0  0  0  0  0  0  0  0  0  0  0  0
    5.3122   -9.1193   25.8586 H   0  0  0  0  0  0  0  0  0  0  0  0
    7.3362   -8.0629   25.6911 H   0  0  0  0  0  0  0  0  0  0  0  0
    4.9288   -7.7082   22.3621 H   0  0  0  0  0  0  0  0  0  0  0  0
    1.7560  -13.1146   25.4175 H   0  0  0  0  0  0  0  0  0  0  0  0
    2.3506  -13.7567   23.7973 H   0  0  0  0  0  0  0  0  0  0  0  0
  1  2  2  0
  2  3  1  0
  3  4  1  0
  4  5  1  0
  5  6  1  0
  6  7  2  0
  7  8  1  0
  8  9  2  0
  9 10  1  0
 10 11  2  0
 11 12  1  0
 12 13  2  0
 13 14  1  0
  2 15  1  0
 15 16  1  0
 16 17  1  0
 17 18  1  0
 18 19  1  0
 19 20  1  0
 20 21  1  0
 21 22  2  0
 22 23  1  0
 23 24  1  0
 19 25  1  0
 14  6  1  0
 25 15  1  0
 13  8  1  0
 24 20  2  0
  3 26  1  0
  4 27  1  0
  4 28  1  0
  5 29  1  0
  5 30  1  0
  9 31  1  0
 10 32  1  0
 11 33  1  0
 12 34  1  0
 14 35  1  0
 16 36  1  0
 16 37  1  0
 17 38  1  0
 17 39  1  0
 19 40  1  0
 21 41  1  0
 22 42  1  0
 24 43  1  0
 25 44  1  0
 25 45  1  0
M  END
>  <Energy>  (239) 
1827.1977252084594

>  <compound_id>  (239) 
4930

>  <target_id>  (239) 
1

>  <reference_id>  (239) 
94

>  <inspiration_ids>  (239) 
[94, 76]

>  <energy_score>  (239) 
1750.5124599865385

>  <distance_score>  (239) 
11.508776686347385

>  <path>  (239) 
/opt/xchem-fragalysis-2/maxwin/BulkDock/SCRATCH/511018/C4930-P94/C4930-P94.minimised.mol

>  <scratch_subdir>  (239) 
/opt/xchem-fragalysis-2/maxwin/BulkDock/SCRATCH/511018/C4930-P94

>  <fragmenstein_runtime>  (239) 
35.148120164871216

>  <fragmenstein_outcome>  (239) 
too moved

>  <fragmenstein_mode>  (239) 
expansion

>  <fragmenstein_error>  (239) 


$$$$
C4930-P76
     RDKit          3D

 45 48  0  0  0  0  0  0  0  0999 V2000
   -2.2821  -11.1683   28.4136 O   0  0  0  0  0  0  0  0  0  0  0  0
   -1.4740  -11.3764   27.5915 C   0  0  0  0  0  0  0  0  0  0  0  0
   -1.3688  -13.1986   26.9482 N   0  0  0  0  0  0  0  0  0  0  0  0
   -2.3409  -14.9671   27.5380 C   0  0  0  0  0  0  0  0  0  0  0  0
   -3.3555  -16.9389   27.2951 C   0  0  0  0  0  0  0  0  0  0  0  0
   -4.9116  -18.4924   27.4601 C   0  0  0  0  0  0  0  0  0  0  0  0
   -4.7779  -19.7904   26.2225 N   0  0  0  0  0  0  0  0  0  0  0  0
   -5.1507  -20.9272   25.5777 C   0  0  0  0  0  0  0  0  0  0  0  0
   -4.8187  -21.7640   24.5125 C   0  0  0  0  0  0  0  0  0  0  0  0
   -5.5827  -22.8684   24.3678 C   0  0  0  0  0  0  0  0  0  0  0  0
   -6.5109  -23.0618   25.3602 C   0  0  0  0  0  0  0  0  0  0  0  0
   -6.6354  -22.3677   26.6243 C   0  0  0  0  0  0  0  0  0  0  0  0
   -5.9063  -21.2261   26.5952 C   0  0  0  0  0  0  0  0  0  0  0  0
   -6.0477  -19.8091   26.8398 N   0  0  0  0  0  0  0  0  0  0  0  0
   -0.2564   -9.8886   27.1227 N   0  0  0  0  0  0  0  0  0  0  0  0
   -0.0852   -8.3432   27.7920 C   0  0  0  0  0  0  0  0  0  0  0  0
   -0.2031   -6.6438   26.8706 C   0  0  0  0  0  0  0  0  0  0  0  0
   -0.0445   -6.4956   25.0846 O   0  0  0  0  0  0  0  0  0  0  0  0
    1.0768   -7.7688   24.2416 C   0  0  0  0  0  0  0  0  0  0  0  0
    3.2332   -7.2568   24.3363 C   0  0  0  0  0  0  0  0  0  0  0  0
    4.8850   -6.8016   23.6642 C   0  0  0  0  0  0  0  0  0  0  0  0
    6.3264   -6.7302   23.6812 C   0  0  0  0  0  0  0  0  0  0  0  0
    6.7975   -7.5883   25.0301 S   0  0  0  0  0  0  0  0  0  0  0  0
    4.8684   -8.0954   24.8825 C   0  0  0  0  0  0  0  0  0  0  0  0
   -0.3915   -8.3926   25.6993 C   0  0  0  0  0  0  0  0  0  0  0  0
   -0.7030  -13.2302   26.1923 H   0  0  0  0  0  0  0  0  0  0  0  0
   -1.4233  -15.4184   27.8162 H   0  0  0  0  0  0  0  0  0  0  0  0
   -2.3865  -14.7341   28.6298 H   0  0  0  0  0  0  0  0  0  0  0  0
   -2.4598  -17.5533   27.2194 H   0  0  0  0  0  0  0  0  0  0  0  0
   -3.7212  -16.5079   28.2215 H   0  0  0  0  0  0  0  0  0  0  0  0
   -3.9965  -21.6016   23.8270 H   0  0  0  0  0  0  0  0  0  0  0  0
   -5.5108  -23.5160   23.5034 H   0  0  0  0  0  0  0  0  0  0  0  0
   -7.2626  -23.7576   25.0361 H   0  0  0  0  0  0  0  0  0  0  0  0
   -7.4591  -22.5009   27.3009 H   0  0  0  0  0  0  0  0  0  0  0  0
   -6.8604  -19.7537   27.3932 H   0  0  0  0  0  0  0  0  0  0  0  0
   -0.5907   -8.2931   28.7563 H   0  0  0  0  0  0  0  0  0  0  0  0
    0.9771   -8.4230   27.8098 H   0  0  0  0  0  0  0  0  0  0  0  0
    0.3093   -5.7841   27.2757 H   0  0  0  0  0  0  0  0  0  0  0  0
   -1.2539   -6.3139   26.9928 H   0  0  0  0  0  0  0  0  0  0  0  0
    0.6516   -7.5785   23.2464 H   0  0  0  0  0  0  0  0  0  0  0  0
    4.9466   -5.8306   24.1082 H   0  0  0  0  0  0  0  0  0  0  0  0
    6.9824   -6.0742   23.1358 H   0  0  0  0  0  0  0  0  0  0  0  0
    4.9746   -8.6049   25.8353 H   0  0  0  0  0  0  0  0  0  0  0  0
   -1.3116   -8.2951   25.0382 H   0  0  0  0  0  0  0  0  0  0  0  0
   -1.2640   -7.8659   26.1145 H   0  0  0  0  0  0  0  0  0  0  0  0
  1  2  2  0
  2  3  1  0
  3  4  1  0
  4  5  1  0
  5  6  1  0
  6  7  2  0
  7  8  1  0
  8  9  2  0
  9 10  1  0
 10 11  2  0
 11 12  1  0
 12 13  2  0
 13 14  1  0
  2 15  1  0
 15 16  1  0
 16 17  1  0
 17 18  1  0
 18 19  1  0
 19 20  1  0
 20 21  1  0
 21 22  2  0
 22 23  1  0
 23 24  1  0
 19 25  1  0
 14  6  1  0
 25 15  1  0
 13  8  1  0
 24 20  2  0
  3 26  1  0
  4 27  1  0
  4 28  1  0
  5 29  1  0
  5 30  1  0
  9 31  1  0
 10 32  1  0
 11 33  1  0
 12 34  1  0
 14 35  1  0
 16 36  1  0
 16 37  1  0
 17 38  1  0
 17 39  1  0
 19 40  1  0
 21 41  1  0
 22 42  1  0
 24 43  1  0
 25 44  1  0
 25 45  1  0
M  END
>  <Energy>  (240) 
2312.4482459816104

>  <compound_id>  (240) 
4930

>  <target_id>  (240) 
1

>  <reference_id>  (240) 
76

>  <inspiration_ids>  (240) 
[94, 76]

>  <energy_score>  (240) 
2235.7629807596522

>  <distance_score>  (240) 
11.023487179253

>  <path>  (240) 
/opt/xchem-fragalysis-2/maxwin/BulkDock/SCRATCH/511018/C4930-P76/C4930-P76.minimised.mol

>  <scratch_subdir>  (240) 
/opt/xchem-fragalysis-2/maxwin/BulkDock/SCRATCH/511018/C4930-P76

>  <fragmenstein_runtime>  (240) 
35.23860788345337

>  <fragmenstein_outcome>  (240) 
too moved

>  <fragmenstein_mode>  (240) 
expansion

>  <fragmenstein_error>  (240) 


$$$$
C4935-P9
     RDKit          3D

 50 51  0  0  0  0  0  0  0  0999 V2000
   -2.2212  -13.2093   26.5585 C   0  0  0  0  0  0  0  0  0  0  0  0
   -2.7396  -11.9849   27.3604 C   0  0  0  0  0  0  0  0  0  0  0  0
   -2.3159  -11.5209   29.0137 C   0  0  0  0  0  0  0  0  0  0  0  0
   -2.7443  -12.8200   29.5269 C   0  0  0  0  0  0  0  0  0  0  0  0
   -1.1559  -10.0700   29.5164 C   0  0  0  0  0  0  0  0  0  0  0  0
   -0.4810   -9.7037   28.5944 O   0  0  0  0  0  0  0  0  0  0  0  0
   -1.2839   -9.5320   30.8591 N   0  0  0  0  0  0  0  0  0  0  0  0
   -0.7052   -8.3230   31.4726 C   0  0  0  0  0  0  0  0  0  0  0  0
   -0.7538   -7.8350   32.9541 C   0  0  0  0  0  0  0  0  0  0  0  0
   -1.7994   -7.4166   33.3709 O   0  0  0  0  0  0  0  0  0  0  0  0
    0.5436   -7.8919   33.5741 N   0  0  0  0  0  0  0  0  0  0  0  0
    1.3510   -6.6057   33.2494 C   0  0  0  0  0  0  0  0  0  0  0  0
    1.6649   -5.3623   34.1101 C   0  0  0  0  0  0  0  0  0  0  0  0
    0.5268   -5.0679   35.0502 C   0  0  0  0  0  0  0  0  0  0  0  0
   -0.7277   -4.4872   34.3806 C   0  0  0  0  0  0  0  0  0  0  0  0
   -0.5039   -3.7365   33.0945 C   0  0  0  0  0  0  0  0  0  0  0  0
    0.0613   -2.4655   33.0942 C   0  0  0  0  0  0  0  0  0  0  0  0
    0.3320   -1.8686   31.8744 C   0  0  0  0  0  0  0  0  0  0  0  0
    0.0842   -2.4429   30.6787 N   0  0  0  0  0  0  0  0  0  0  0  0
   -0.4886   -3.6583   30.6949 C   0  0  0  0  0  0  0  0  0  0  0  0
   -0.8026   -4.3283   31.8632 C   0  0  0  0  0  0  0  0  0  0  0  0
    0.2474   -6.4121   35.7196 C   0  0  0  0  0  0  0  0  0  0  0  0
    0.9754   -7.5540   34.9689 C   0  0  0  0  0  0  0  0  0  0  0  0
   -1.1763  -13.1525   26.3419 H   0  0  0  0  0  0  0  0  0  0  0  0
   -2.3278  -14.2166   26.9372 H   0  0  0  0  0  0  0  0  0  0  0  0
   -2.6741  -13.0372   25.6320 H   0  0  0  0  0  0  0  0  0  0  0  0
   -2.3778  -11.1782   26.7809 H   0  0  0  0  0  0  0  0  0  0  0  0
   -3.8129  -12.0680   27.3313 H   0  0  0  0  0  0  0  0  0  0  0  0
   -3.1606  -11.1848   29.5177 H   0  0  0  0  0  0  0  0  0  0  0  0
   -3.8353  -12.7670   29.4994 H   0  0  0  0  0  0  0  0  0  0  0  0
   -2.6567  -13.0279   30.5272 H   0  0  0  0  0  0  0  0  0  0  0  0
   -2.2446  -13.7124   29.1144 H   0  0  0  0  0  0  0  0  0  0  0  0
   -2.0003  -10.0353   31.3458 H   0  0  0  0  0  0  0  0  0  0  0  0
    0.3241   -8.2551   31.1078 H   0  0  0  0  0  0  0  0  0  0  0  0
   -1.1940   -7.5090   30.9173 H   0  0  0  0  0  0  0  0  0  0  0  0
    2.3331   -6.9770   32.9311 H   0  0  0  0  0  0  0  0  0  0  0  0
    0.9338   -6.2393   32.3051 H   0  0  0  0  0  0  0  0  0  0  0  0
    1.9420   -4.5182   33.4708 H   0  0  0  0  0  0  0  0  0  0  0  0
    2.5764   -5.5460   34.6986 H   0  0  0  0  0  0  0  0  0  0  0  0
    0.8660   -4.3434   35.8018 H   0  0  0  0  0  0  0  0  0  0  0  0
   -1.2337   -3.8250   35.0953 H   0  0  0  0  0  0  0  0  0  0  0  0
   -1.4360   -5.2872   34.1822 H   0  0  0  0  0  0  0  0  0  0  0  0
    0.3029   -1.9519   34.0184 H   0  0  0  0  0  0  0  0  0  0  0  0
    0.7773   -0.8787   31.8250 H   0  0  0  0  0  0  0  0  0  0  0  0
   -0.6848   -4.0863   29.7153 H   0  0  0  0  0  0  0  0  0  0  0  0
   -1.2477   -5.3111   31.8105 H   0  0  0  0  0  0  0  0  0  0  0  0
    0.6332   -6.3878   36.7468 H   0  0  0  0  0  0  0  0  0  0  0  0
   -0.8247   -6.6220   35.8056 H   0  0  0  0  0  0  0  0  0  0  0  0
    0.6415   -8.4465   35.5210 H   0  0  0  0  0  0  0  0  0  0  0  0
    2.0673   -7.6112   35.1212 H   0  0  0  0  0  0  0  0  0  0  0  0
  1  2  1  0
  2  3  1  0
  3  4  1  0
  3  5  1  0
  5  6  2  0
  5  7  1  0
  7  8  1  0
  8  9  1  0
  9 10  2  0
  9 11  1  0
 11 12  1  0
 12 13  1  0
 13 14  1  0
 14 15  1  0
 15 16  1  0
 16 17  2  0
 17 18  1  0
 18 19  2  0
 19 20  1  0
 20 21  2  0
 14 22  1  0
 22 23  1  0
 23 11  1  0
 21 16  1  0
  1 24  1  0
  1 25  1  0
  1 26  1  0
  2 27  1  0
  2 28  1  0
  3 29  1  0
  4 30  1  0
  4 31  1  0
  4 32  1  0
  7 33  1  0
  8 34  1  0
  8 35  1  0
 12 36  1  0
 12 37  1  0
 13 38  1  0
 13 39  1  0
 14 40  1  0
 15 41  1  0
 15 42  1  0
 17 43  1  0
 18 44  1  0
 20 45  1  0
 21 46  1  0
 22 47  1  0
 22 48  1  0
 23 49  1  0
 23 50  1  0
M  END
>  <Energy>  (241) 
252.96346176299005

>  <compound_id>  (241) 
4935

>  <target_id>  (241) 
1

>  <reference_id>  (241) 
9

>  <inspiration_ids>  (241) 
[9, 56]

>  <energy_score>  (241) 
160.08189569721344

>  <distance_score>  (241) 
11.45034878305578

>  <path>  (241) 
/opt/xchem-fragalysis-2/maxwin/BulkDock/SCRATCH/511018/C4935-P9/C4935-P9.minimised.mol

>  <scratch_subdir>  (241) 
/opt/xchem-fragalysis-2/maxwin/BulkDock/SCRATCH/511018/C4935-P9

>  <fragmenstein_runtime>  (241) 
52.13594889640808

>  <fragmenstein_outcome>  (241) 
too moved

>  <fragmenstein_mode>  (241) 
expansion

>  <fragmenstein_error>  (241) 


$$$$
C4935-P56
     RDKit          3D

 50 51  0  0  0  0  0  0  0  0999 V2000
   -6.5876  -19.9778   19.0942 C   0  0  0  0  0  0  0  0  0  0  0  0
   -7.8025  -19.1406   19.4709 C   0  0  0  0  0  0  0  0  0  0  0  0
   -7.9673  -18.7669   20.9730 C   0  0  0  0  0  0  0  0  0  0  0  0
   -7.9518  -20.0159   21.8543 C   0  0  0  0  0  0  0  0  0  0  0  0
   -6.9804  -17.6692   21.5164 C   0  0  0  0  0  0  0  0  0  0  0  0
   -5.8763  -17.5405   21.0517 O   0  0  0  0  0  0  0  0  0  0  0  0
   -7.6806  -16.9089   22.6502 N   0  0  0  0  0  0  0  0  0  0  0  0
   -6.9926  -15.4613   23.9292 C   0  0  0  0  0  0  0  0  0  0  0  0
   -7.7941  -15.1623   25.6734 C   0  0  0  0  0  0  0  0  0  0  0  0
   -7.3153  -14.1617   26.1830 O   0  0  0  0  0  0  0  0  0  0  0  0
   -8.7405  -16.1566   26.2503 N   0  0  0  0  0  0  0  0  0  0  0  0
  -10.1698  -15.7548   25.9727 C   0  0  0  0  0  0  0  0  0  0  0  0
  -10.6224  -14.2995   26.6162 C   0  0  0  0  0  0  0  0  0  0  0  0
  -10.3113  -14.0799   28.1137 C   0  0  0  0  0  0  0  0  0  0  0  0
   -9.0573  -13.2882   28.6190 C   0  0  0  0  0  0  0  0  0  0  0  0
   -9.0069  -11.8129   28.3316 C   0  0  0  0  0  0  0  0  0  0  0  0
   -7.7954  -11.2169   27.9941 C   0  0  0  0  0  0  0  0  0  0  0  0
   -7.7725   -9.8578   27.7405 C   0  0  0  0  0  0  0  0  0  0  0  0
   -8.8525   -9.0588   27.7719 N   0  0  0  0  0  0  0  0  0  0  0  0
   -9.9999   -9.6368   28.1589 C   0  0  0  0  0  0  0  0  0  0  0  0
  -10.1222  -10.9855   28.4591 C   0  0  0  0  0  0  0  0  0  0  0  0
  -10.2446  -15.4975   28.5727 C   0  0  0  0  0  0  0  0  0  0  0  0
   -9.3062  -16.3024   27.6737 C   0  0  0  0  0  0  0  0  0  0  0  0
   -5.6730  -19.3811   19.1670 H   0  0  0  0  0  0  0  0  0  0  0  0
   -6.6715  -20.3253   18.0605 H   0  0  0  0  0  0  0  0  0  0  0  0
   -6.4604  -20.8473   19.7386 H   0  0  0  0  0  0  0  0  0  0  0  0
   -7.7878  -18.2184   18.8772 H   0  0  0  0  0  0  0  0  0  0  0  0
   -8.6975  -19.6944   19.1618 H   0  0  0  0  0  0  0  0  0  0  0  0
   -8.9784  -18.3466   21.0383 H   0  0  0  0  0  0  0  0  0  0  0  0
   -6.9552  -20.4573   21.9165 H   0  0  0  0  0  0  0  0  0  0  0  0
   -8.2677  -19.7989   22.8757 H   0  0  0  0  0  0  0  0  0  0  0  0
   -8.6354  -20.7760   21.4610 H   0  0  0  0  0  0  0  0  0  0  0  0
   -8.6615  -17.2358   22.7205 H   0  0  0  0  0  0  0  0  0  0  0  0
   -5.7876  -15.4126   23.9237 H   0  0  0  0  0  0  0  0  0  0  0  0
   -6.7432  -14.4821   23.6497 H   0  0  0  0  0  0  0  0  0  0  0  0
  -10.3178  -15.8262   24.8974 H   0  0  0  0  0  0  0  0  0  0  0  0
  -10.8975  -16.5345   26.2743 H   0  0  0  0  0  0  0  0  0  0  0  0
  -10.3378  -13.4093   26.0723 H   0  0  0  0  0  0  0  0  0  0  0  0
  -11.7184  -14.3108   26.5095 H   0  0  0  0  0  0  0  0  0  0  0  0
  -11.1909  -13.6104   28.5718 H   0  0  0  0  0  0  0  0  0  0  0  0
   -9.0267  -13.3802   29.7145 H   0  0  0  0  0  0  0  0  0  0  0  0
   -8.1432  -13.7750   28.2780 H   0  0  0  0  0  0  0  0  0  0  0  0
   -6.8818  -11.7977   27.9235 H   0  0  0  0  0  0  0  0  0  0  0  0
   -6.8510   -9.3417   27.5280 H   0  0  0  0  0  0  0  0  0  0  0  0
  -10.8516   -8.9671   28.2294 H   0  0  0  0  0  0  0  0  0  0  0  0
  -11.0869  -11.3682   28.7702 H   0  0  0  0  0  0  0  0  0  0  0  0
   -9.9392  -15.5823   29.6229 H   0  0  0  0  0  0  0  0  0  0  0  0
  -11.2481  -15.9458   28.5332 H   0  0  0  0  0  0  0  0  0  0  0  0
   -8.3669  -16.2946   28.2480 H   0  0  0  0  0  0  0  0  0  0  0  0
   -9.6058  -17.3629   27.7486 H   0  0  0  0  0  0  0  0  0  0  0  0
  1  2  1  0
  2  3  1  0
  3  4  1  0
  3  5  1  0
  5  6  2  0
  5  7  1  0
  7  8  1  0
  8  9  1  0
  9 10  2  0
  9 11  1  0
 11 12  1  0
 12 13  1  0
 13 14  1  0
 14 15  1  0
 15 16  1  0
 16 17  2  0
 17 18  1  0
 18 19  2  0
 19 20  1  0
 20 21  2  0
 14 22  1  0
 22 23  1  0
 23 11  1  0
 21 16  1  0
  1 24  1  0
  1 25  1  0
  1 26  1  0
  2 27  1  0
  2 28  1  0
  3 29  1  0
  4 30  1  0
  4 31  1  0
  4 32  1  0
  7 33  1  0
  8 34  1  0
  8 35  1  0
 12 36  1  0
 12 37  1  0
 13 38  1  0
 13 39  1  0
 14 40  1  0
 15 41  1  0
 15 42  1  0
 17 43  1  0
 18 44  1  0
 20 45  1  0
 21 46  1  0
 22 47  1  0
 22 48  1  0
 23 49  1  0
 23 50  1  0
M  END
>  <Energy>  (242) 
307.23370442411982

>  <compound_id>  (242) 
4935

>  <target_id>  (242) 
1

>  <reference_id>  (242) 
56

>  <inspiration_ids>  (242) 
[9, 56]

>  <energy_score>  (242) 
214.35213835835054

>  <distance_score>  (242) 
14.444777183334192

>  <path>  (242) 
/opt/xchem-fragalysis-2/maxwin/BulkDock/SCRATCH/511018/C4935-P56/C4935-P56.minimised.mol

>  <scratch_subdir>  (242) 
/opt/xchem-fragalysis-2/maxwin/BulkDock/SCRATCH/511018/C4935-P56

>  <fragmenstein_runtime>  (242) 
50.352944135665894

>  <fragmenstein_outcome>  (242) 
too moved

>  <fragmenstein_mode>  (242) 
expansion

>  <fragmenstein_error>  (242) 


$$$$
C4946-P9
     RDKit          3D

 48 49  0  0  0  0  0  0  0  0999 V2000
   -1.1894   -6.7353   32.0287 C   0  0  0  0  0  0  0  0  0  0  0  0
   -1.0566   -8.2295   31.9649 C   0  0  0  0  0  0  0  0  0  0  0  0
   -0.5919   -8.7544   32.9237 O   0  0  0  0  0  0  0  0  0  0  0  0
   -1.4341   -8.7685   30.6948 N   0  0  0  0  0  0  0  0  0  0  0  0
   -1.2536  -10.2774   30.0679 C   0  0  0  0  0  0  0  0  0  0  0  0
   -0.1165   -9.4764   29.2038 C   0  0  0  0  0  0  0  0  0  0  0  0
   -2.3118  -11.6984   29.1479 C   0  0  0  0  0  0  0  0  0  0  0  0
   -2.9616  -11.9082   27.7214 C   0  0  0  0  0  0  0  0  0  0  0  0
   -2.9935  -13.0010   26.5797 C   0  0  0  0  0  0  0  0  0  0  0  0
   -2.3657  -14.0593   25.8137 N   0  0  0  0  0  0  0  0  0  0  0  0
   -3.0037  -15.5085   25.2137 C   0  0  0  0  0  0  0  0  0  0  0  0
   -3.0444  -16.5930   25.7075 O   0  0  0  0  0  0  0  0  0  0  0  0
   -3.9255  -15.3633   23.5981 C   0  0  0  0  0  0  0  0  0  0  0  0
   -4.3463  -16.4367   22.1143 O   0  0  0  0  0  0  0  0  0  0  0  0
   -5.7152  -17.5360   21.6426 C   0  0  0  0  0  0  0  0  0  0  0  0
   -6.0657  -18.4284   20.3513 C   0  0  0  0  0  0  0  0  0  0  0  0
   -5.3966  -19.5372   19.8629 C   0  0  0  0  0  0  0  0  0  0  0  0
   -5.9381  -20.3364   18.8489 C   0  0  0  0  0  0  0  0  0  0  0  0
   -7.1711  -20.1751   18.3623 N   0  0  0  0  0  0  0  0  0  0  0  0
   -7.8587  -19.1384   18.8537 C   0  0  0  0  0  0  0  0  0  0  0  0
   -7.3492  -18.2516   19.7871 C   0  0  0  0  0  0  0  0  0  0  0  0
   -1.6389  -13.8661   27.0329 C   0  0  0  0  0  0  0  0  0  0  0  0
   -2.0406  -13.6115   28.7843 C   0  0  0  0  0  0  0  0  0  0  0  0
   -1.6407   -6.3180   31.1399 H   0  0  0  0  0  0  0  0  0  0  0  0
   -0.1814   -6.3114   32.0982 H   0  0  0  0  0  0  0  0  0  0  0  0
   -1.7367   -6.4546   32.9280 H   0  0  0  0  0  0  0  0  0  0  0  0
   -1.7190   -7.9961   30.0757 H   0  0  0  0  0  0  0  0  0  0  0  0
   -0.8640  -10.8048   30.9042 H   0  0  0  0  0  0  0  0  0  0  0  0
    0.7557   -9.9933   28.9152 H   0  0  0  0  0  0  0  0  0  0  0  0
    0.3828   -8.6465   29.7378 H   0  0  0  0  0  0  0  0  0  0  0  0
   -0.5205   -9.0132   28.3257 H   0  0  0  0  0  0  0  0  0  0  0  0
   -1.7244  -11.0552   28.5033 H   0  0  0  0  0  0  0  0  0  0  0  0
   -2.4680  -11.1940   27.0766 H   0  0  0  0  0  0  0  0  0  0  0  0
   -4.0088  -11.9006   27.9600 H   0  0  0  0  0  0  0  0  0  0  0  0
   -3.6131  -12.4526   25.8810 H   0  0  0  0  0  0  0  0  0  0  0  0
   -2.3315  -12.4018   25.9473 H   0  0  0  0  0  0  0  0  0  0  0  0
   -3.1968  -14.6578   23.3456 H   0  0  0  0  0  0  0  0  0  0  0  0
   -4.8570  -14.8536   23.7117 H   0  0  0  0  0  0  0  0  0  0  0  0
   -6.1001  -17.9961   22.5602 H   0  0  0  0  0  0  0  0  0  0  0  0
   -6.4487  -16.8453   21.2582 H   0  0  0  0  0  0  0  0  0  0  0  0
   -4.5167  -19.9011   20.3566 H   0  0  0  0  0  0  0  0  0  0  0  0
   -5.4111  -21.2131   18.4850 H   0  0  0  0  0  0  0  0  0  0  0  0
   -8.8765  -19.0299   18.4990 H   0  0  0  0  0  0  0  0  0  0  0  0
   -8.0030  -17.4569   20.1332 H   0  0  0  0  0  0  0  0  0  0  0  0
   -0.6779  -13.4923   26.7430 H   0  0  0  0  0  0  0  0  0  0  0  0
   -1.6963  -14.9379   27.3247 H   0  0  0  0  0  0  0  0  0  0  0  0
   -1.4308  -14.4352   29.1461 H   0  0  0  0  0  0  0  0  0  0  0  0
   -2.8004  -14.1130   29.4352 H   0  0  0  0  0  0  0  0  0  0  0  0
  1  2  1  0
  2  3  2  0
  2  4  1  0
  4  5  1  0
  5  6  1  0
  5  7  1  0
  7  8  1  0
  8  9  1  0
  9 10  1  0
 10 11  1  0
 11 12  2  0
 11 13  1  0
 13 14  1  0
 14 15  1  0
 15 16  1  0
 16 17  2  0
 17 18  1  0
 18 19  2  0
 19 20  1  0
 20 21  2  0
 10 22  1  0
 22 23  1  0
 23  7  1  0
 21 16  1  0
  1 24  1  0
  1 25  1  0
  1 26  1  0
  4 27  1  0
  5 28  1  0
  6 29  1  0
  6 30  1  0
  6 31  1  0
  7 32  1  0
  8 33  1  0
  8 34  1  0
  9 35  1  0
  9 36  1  0
 13 37  1  0
 13 38  1  0
 15 39  1  0
 15 40  1  0
 17 41  1  0
 18 42  1  0
 20 43  1  0
 21 44  1  0
 22 45  1  0
 22 46  1  0
 23 47  1  0
 23 48  1  0
M  END
>  <Energy>  (243) 
831.68407886195553

>  <compound_id>  (243) 
4946

>  <target_id>  (243) 
1

>  <reference_id>  (243) 
9

>  <inspiration_ids>  (243) 
[9, 56]

>  <energy_score>  (243) 
749.8136753018077

>  <distance_score>  (243) 
8.964356352636768

>  <path>  (243) 
/opt/xchem-fragalysis-2/maxwin/BulkDock/SCRATCH/511018/C4946-P9/C4946-P9.minimised.mol

>  <scratch_subdir>  (243) 
/opt/xchem-fragalysis-2/maxwin/BulkDock/SCRATCH/511018/C4946-P9

>  <fragmenstein_runtime>  (243) 
18.97611403465271

>  <fragmenstein_outcome>  (243) 
too moved

>  <fragmenstein_mode>  (243) 
expansion

>  <fragmenstein_error>  (243) 


$$$$
C4946-P56
     RDKit          3D

 48 49  0  0  0  0  0  0  0  0999 V2000
   -1.8089   -8.2517   33.7165 C   0  0  0  0  0  0  0  0  0  0  0  0
   -2.0364   -8.4696   32.2332 C   0  0  0  0  0  0  0  0  0  0  0  0
   -3.1438   -8.5885   31.8106 O   0  0  0  0  0  0  0  0  0  0  0  0
   -0.7775   -8.5532   31.5767 N   0  0  0  0  0  0  0  0  0  0  0  0
   -0.4349   -8.7160   30.1528 C   0  0  0  0  0  0  0  0  0  0  0  0
   -0.3551   -7.2687   29.6089 C   0  0  0  0  0  0  0  0  0  0  0  0
   -1.0173   -9.8024   29.1900 C   0  0  0  0  0  0  0  0  0  0  0  0
   -0.7482  -10.1492   27.6485 C   0  0  0  0  0  0  0  0  0  0  0  0
   -2.1643  -10.7158   26.4801 C   0  0  0  0  0  0  0  0  0  0  0  0
   -3.1944  -12.3825   26.5876 N   0  0  0  0  0  0  0  0  0  0  0  0
   -2.5614  -14.0713   25.9812 C   0  0  0  0  0  0  0  0  0  0  0  0
   -1.9862  -14.7316   26.7942 O   0  0  0  0  0  0  0  0  0  0  0  0
   -2.7970  -15.1830   24.2818 C   0  0  0  0  0  0  0  0  0  0  0  0
   -3.8459  -15.7284   22.9001 O   0  0  0  0  0  0  0  0  0  0  0  0
   -3.5765  -16.5099   21.1777 C   0  0  0  0  0  0  0  0  0  0  0  0
   -4.0182  -17.6050   19.7167 C   0  0  0  0  0  0  0  0  0  0  0  0
   -3.0522  -17.9877   18.7919 C   0  0  0  0  0  0  0  0  0  0  0  0
   -3.4419  -18.8936   17.7963 C   0  0  0  0  0  0  0  0  0  0  0  0
   -4.6785  -19.4403   17.6602 N   0  0  0  0  0  0  0  0  0  0  0  0
   -5.5997  -19.0810   18.5728 C   0  0  0  0  0  0  0  0  0  0  0  0
   -5.3337  -18.1801   19.5950 C   0  0  0  0  0  0  0  0  0  0  0  0
   -3.1965  -11.6108   28.3625 C   0  0  0  0  0  0  0  0  0  0  0  0
   -2.1108  -10.8619   29.7623 C   0  0  0  0  0  0  0  0  0  0  0  0
   -1.1627   -9.0368   34.1152 H   0  0  0  0  0  0  0  0  0  0  0  0
   -2.7612   -8.3041   34.2513 H   0  0  0  0  0  0  0  0  0  0  0  0
   -1.3608   -7.2688   33.8848 H   0  0  0  0  0  0  0  0  0  0  0  0
   -0.0429   -8.3136   32.2377 H   0  0  0  0  0  0  0  0  0  0  0  0
    0.5198   -9.1542   30.1297 H   0  0  0  0  0  0  0  0  0  0  0  0
   -1.3507   -6.8277   29.5925 H   0  0  0  0  0  0  0  0  0  0  0  0
    0.2722   -6.6274   30.2379 H   0  0  0  0  0  0  0  0  0  0  0  0
    0.0298   -7.2418   28.5857 H   0  0  0  0  0  0  0  0  0  0  0  0
   -1.3899   -8.8896   28.7956 H   0  0  0  0  0  0  0  0  0  0  0  0
   -0.4517   -9.1810   27.2116 H   0  0  0  0  0  0  0  0  0  0  0  0
    0.1150  -10.8156   27.5933 H   0  0  0  0  0  0  0  0  0  0  0  0
   -1.8213  -11.2757   25.7147 H   0  0  0  0  0  0  0  0  0  0  0  0
   -2.2276   -9.8441   25.7637 H   0  0  0  0  0  0  0  0  0  0  0  0
   -1.7531  -15.2420   23.9534 H   0  0  0  0  0  0  0  0  0  0  0  0
   -2.9020  -16.0864   24.8724 H   0  0  0  0  0  0  0  0  0  0  0  0
   -4.6336  -16.5857   21.3884 H   0  0  0  0  0  0  0  0  0  0  0  0
   -3.0523  -15.7415   20.5829 H   0  0  0  0  0  0  0  0  0  0  0  0
   -2.0352  -17.6201   18.8408 H   0  0  0  0  0  0  0  0  0  0  0  0
   -2.7243  -19.2251   17.0486 H   0  0  0  0  0  0  0  0  0  0  0  0
   -6.5755  -19.5466   18.4687 H   0  0  0  0  0  0  0  0  0  0  0  0
   -6.1133  -17.9547   20.3205 H   0  0  0  0  0  0  0  0  0  0  0  0
   -4.1961  -11.9902   28.6544 H   0  0  0  0  0  0  0  0  0  0  0  0
   -3.1038  -12.4665   29.0937 H   0  0  0  0  0  0  0  0  0  0  0  0
   -2.7044  -10.5167   30.6260 H   0  0  0  0  0  0  0  0  0  0  0  0
   -1.7727  -11.5068   30.5797 H   0  0  0  0  0  0  0  0  0  0  0  0
  1  2  1  0
  2  3  2  0
  2  4  1  0
  4  5  1  0
  5  6  1  0
  5  7  1  0
  7  8  1  0
  8  9  1  0
  9 10  1  0
 10 11  1  0
 11 12  2  0
 11 13  1  0
 13 14  1  0
 14 15  1  0
 15 16  1  0
 16 17  2  0
 17 18  1  0
 18 19  2  0
 19 20  1  0
 20 21  2  0
 10 22  1  0
 22 23  1  0
 23  7  1  0
 21 16  1  0
  1 24  1  0
  1 25  1  0
  1 26  1  0
  4 27  1  0
  5 28  1  0
  6 29  1  0
  6 30  1  0
  6 31  1  0
  7 32  1  0
  8 33  1  0
  8 34  1  0
  9 35  1  0
  9 36  1  0
 13 37  1  0
 13 38  1  0
 15 39  1  0
 15 40  1  0
 17 41  1  0
 18 42  1  0
 20 43  1  0
 21 44  1  0
 22 45  1  0
 22 46  1  0
 23 47  1  0
 23 48  1  0
M  END
>  <Energy>  (244) 
898.09907953361869

>  <compound_id>  (244) 
4946

>  <target_id>  (244) 
1

>  <reference_id>  (244) 
56

>  <inspiration_ids>  (244) 
[9, 56]

>  <energy_score>  (244) 
816.2286759734739

>  <distance_score>  (244) 
9.361254121808047

>  <path>  (244) 
/opt/xchem-fragalysis-2/maxwin/BulkDock/SCRATCH/511018/C4946-P56/C4946-P56.minimised.mol

>  <scratch_subdir>  (244) 
/opt/xchem-fragalysis-2/maxwin/BulkDock/SCRATCH/511018/C4946-P56

>  <fragmenstein_runtime>  (244) 
21.815662622451782

>  <fragmenstein_outcome>  (244) 
too moved

>  <fragmenstein_mode>  (244) 
expansion

>  <fragmenstein_error>  (244) 


$$$$
C4974-P9
     RDKit          3D

 47 48  0  0  0  0  0  0  0  0999 V2000
   -4.1202  -15.8580   22.3915 C   0  0  0  0  0  0  0  0  0  0  0  0
   -3.0436  -14.6706   23.7816 C   0  0  0  0  0  0  0  0  0  0  0  0
   -2.8308  -12.9691   24.6142 O   0  0  0  0  0  0  0  0  0  0  0  0
   -2.2849  -12.6914   26.3661 C   0  0  0  0  0  0  0  0  0  0  0  0
   -2.6695  -11.6620   28.0523 C   0  0  0  0  0  0  0  0  0  0  0  0
   -1.1760  -10.2663   29.3430 S   0  0  0  0  0  0  0  0  0  0  0  0
   -0.0281   -9.7484   28.6369 O   0  0  0  0  0  0  0  0  0  0  0  0
   -1.0731  -10.9035   30.6281 O   0  0  0  0  0  0  0  0  0  0  0  0
   -1.4169   -8.5921   29.9370 N   0  0  0  0  0  0  0  0  0  0  0  0
   -0.5602   -8.0785   31.0718 C   0  0  0  0  0  0  0  0  0  0  0  0
   -1.3976   -7.8476   32.3033 C   0  0  0  0  0  0  0  0  0  0  0  0
   -0.5460   -7.3245   33.4499 C   0  0  0  0  0  0  0  0  0  0  0  0
    0.1657   -6.0870   33.0872 N   0  0  0  0  0  0  0  0  0  0  0  0
    1.0514   -5.6492   34.1777 C   0  0  0  0  0  0  0  0  0  0  0  0
    0.2697   -5.2858   35.4029 C   0  0  0  0  0  0  0  0  0  0  0  0
    0.3027   -6.0891   36.5417 C   0  0  0  0  0  0  0  0  0  0  0  0
   -0.5169   -5.7479   37.5990 C   0  0  0  0  0  0  0  0  0  0  0  0
   -1.3453   -4.6837   37.5947 N   0  0  0  0  0  0  0  0  0  0  0  0
   -1.3505   -3.9194   36.4847 C   0  0  0  0  0  0  0  0  0  0  0  0
   -0.5741   -4.1766   35.3765 C   0  0  0  0  0  0  0  0  0  0  0  0
    0.9547   -6.2286   31.8659 C   0  0  0  0  0  0  0  0  0  0  0  0
    0.1408   -6.7738   30.7034 C   0  0  0  0  0  0  0  0  0  0  0  0
   -4.8274  -15.7794   21.5479 H   0  0  0  0  0  0  0  0  0  0  0  0
   -3.4842  -16.0720   21.3932 H   0  0  0  0  0  0  0  0  0  0  0  0
   -4.2134  -16.9004   22.3538 H   0  0  0  0  0  0  0  0  0  0  0  0
   -2.0911  -14.3776   23.2864 H   0  0  0  0  0  0  0  0  0  0  0  0
   -2.9365  -15.3204   24.6556 H   0  0  0  0  0  0  0  0  0  0  0  0
   -1.2667  -12.5252   26.1024 H   0  0  0  0  0  0  0  0  0  0  0  0
   -2.2983  -13.7342   26.6821 H   0  0  0  0  0  0  0  0  0  0  0  0
   -2.4685  -12.4855   28.7971 H   0  0  0  0  0  0  0  0  0  0  0  0
   -3.6917  -11.7597   28.3964 H   0  0  0  0  0  0  0  0  0  0  0  0
   -1.1553   -8.0307   29.1107 H   0  0  0  0  0  0  0  0  0  0  0  0
    0.1999   -8.7885   31.2999 H   0  0  0  0  0  0  0  0  0  0  0  0
   -2.1582   -7.1155   32.0610 H   0  0  0  0  0  0  0  0  0  0  0  0
   -1.9233   -8.7577   32.5947 H   0  0  0  0  0  0  0  0  0  0  0  0
   -1.2243   -7.1465   34.2917 H   0  0  0  0  0  0  0  0  0  0  0  0
    0.1668   -8.0928   33.7618 H   0  0  0  0  0  0  0  0  0  0  0  0
    1.6144   -4.7564   33.8729 H   0  0  0  0  0  0  0  0  0  0  0  0
    1.8016   -6.4168   34.4124 H   0  0  0  0  0  0  0  0  0  0  0  0
    0.9269   -6.9729   36.6013 H   0  0  0  0  0  0  0  0  0  0  0  0
   -0.5347   -6.3402   38.5091 H   0  0  0  0  0  0  0  0  0  0  0  0
   -2.0292   -3.0722   36.5009 H   0  0  0  0  0  0  0  0  0  0  0  0
   -0.6567   -3.5490   34.4954 H   0  0  0  0  0  0  0  0  0  0  0  0
    1.8142   -6.8797   32.0458 H   0  0  0  0  0  0  0  0  0  0  0  0
    1.3571   -5.2516   31.5704 H   0  0  0  0  0  0  0  0  0  0  0  0
   -0.5852   -6.0244   30.3689 H   0  0  0  0  0  0  0  0  0  0  0  0
    0.8333   -6.9497   29.8773 H   0  0  0  0  0  0  0  0  0  0  0  0
  1  2  1  0
  2  3  1  0
  3  4  1  0
  4  5  1  0
  5  6  1  0
  6  7  2  0
  6  8  2  0
  6  9  1  0
  9 10  1  0
 10 11  1  0
 11 12  1  0
 12 13  1  0
 13 14  1  0
 14 15  1  0
 15 16  2  0
 16 17  1  0
 17 18  2  0
 18 19  1  0
 19 20  2  0
 13 21  1  0
 21 22  1  0
 22 10  1  0
 20 15  1  0
  1 23  1  0
  1 24  1  0
  1 25  1  0
  2 26  1  0
  2 27  1  0
  4 28  1  0
  4 29  1  0
  5 30  1  0
  5 31  1  0
  9 32  1  0
 10 33  1  0
 11 34  1  0
 11 35  1  0
 12 36  1  0
 12 37  1  0
 14 38  1  0
 14 39  1  0
 16 40  1  0
 17 41  1  0
 19 42  1  0
 20 43  1  0
 21 44  1  0
 21 45  1  0
 22 46  1  0
 22 47  1  0
M  END
>  <Energy>  (245) 
490.0627716540875

>  <compound_id>  (245) 
4974

>  <target_id>  (245) 
1

>  <reference_id>  (245) 
9

>  <inspiration_ids>  (245) 
[9, 56]

>  <energy_score>  (245) 
493.30800566250224

>  <distance_score>  (245) 
9.087237978832999

>  <path>  (245) 
/opt/xchem-fragalysis-2/maxwin/BulkDock/SCRATCH/511018/C4974-P9/C4974-P9.minimised.mol

>  <scratch_subdir>  (245) 
/opt/xchem-fragalysis-2/maxwin/BulkDock/SCRATCH/511018/C4974-P9

>  <fragmenstein_runtime>  (245) 
10.393804788589478

>  <fragmenstein_outcome>  (245) 
too moved

>  <fragmenstein_mode>  (245) 
expansion

>  <fragmenstein_error>  (245) 


$$$$
C4974-P56
     RDKit          3D

 47 48  0  0  0  0  0  0  0  0999 V2000
  -10.7054  -21.6683   26.9004 C   0  0  0  0  0  0  0  0  0  0  0  0
   -9.4472  -20.7988   27.6463 C   0  0  0  0  0  0  0  0  0  0  0  0
   -8.7808  -19.0325   28.2804 O   0  0  0  0  0  0  0  0  0  0  0  0
   -7.9222  -17.2918   28.2568 C   0  0  0  0  0  0  0  0  0  0  0  0
   -6.2743  -16.2213   28.9804 C   0  0  0  0  0  0  0  0  0  0  0  0
   -5.9395  -14.1617   29.7357 S   0  0  0  0  0  0  0  0  0  0  0  0
   -6.6912  -13.9403   30.9152 O   0  0  0  0  0  0  0  0  0  0  0  0
   -6.6762  -13.5330   28.6222 O   0  0  0  0  0  0  0  0  0  0  0  0
   -3.6171  -13.6706   29.7802 N   0  0  0  0  0  0  0  0  0  0  0  0
   -1.8468  -14.7567   29.6593 C   0  0  0  0  0  0  0  0  0  0  0  0
   -0.6362  -14.3914   31.1633 C   0  0  0  0  0  0  0  0  0  0  0  0
    0.9785  -13.8127   31.1966 C   0  0  0  0  0  0  0  0  0  0  0  0
    1.6833  -13.2498   30.0007 N   0  0  0  0  0  0  0  0  0  0  0  0
    1.8495  -11.7036   29.5548 C   0  0  0  0  0  0  0  0  0  0  0  0
    0.7668  -10.4244   29.3334 C   0  0  0  0  0  0  0  0  0  0  0  0
    0.9610   -9.6218   28.2574 C   0  0  0  0  0  0  0  0  0  0  0  0
    0.1999   -8.4349   28.0481 C   0  0  0  0  0  0  0  0  0  0  0  0
   -0.5479   -7.8389   28.9841 N   0  0  0  0  0  0  0  0  0  0  0  0
   -0.6745   -8.5734   30.0721 C   0  0  0  0  0  0  0  0  0  0  0  0
   -0.3483   -9.9293   30.0749 C   0  0  0  0  0  0  0  0  0  0  0  0
    1.2849  -14.1771   28.9188 C   0  0  0  0  0  0  0  0  0  0  0  0
   -0.0349  -15.0340   29.2794 C   0  0  0  0  0  0  0  0  0  0  0  0
  -11.6303  -21.6242   27.4942 H   0  0  0  0  0  0  0  0  0  0  0  0
  -10.9630  -21.4235   25.8687 H   0  0  0  0  0  0  0  0  0  0  0  0
  -10.4005  -22.7231   26.9228 H   0  0  0  0  0  0  0  0  0  0  0  0
   -8.5307  -21.4074   27.4012 H   0  0  0  0  0  0  0  0  0  0  0  0
   -9.9685  -21.1069   28.6171 H   0  0  0  0  0  0  0  0  0  0  0  0
   -8.3812  -16.7920   27.3944 H   0  0  0  0  0  0  0  0  0  0  0  0
   -7.0044  -17.5977   28.0184 H   0  0  0  0  0  0  0  0  0  0  0  0
   -5.8090  -16.6798   29.8498 H   0  0  0  0  0  0  0  0  0  0  0  0
   -6.9678  -15.5265   28.5230 H   0  0  0  0  0  0  0  0  0  0  0  0
   -3.5572  -12.6690   29.5101 H   0  0  0  0  0  0  0  0  0  0  0  0
   -1.8366  -14.7208   28.5719 H   0  0  0  0  0  0  0  0  0  0  0  0
   -0.9890  -13.7341   31.9249 H   0  0  0  0  0  0  0  0  0  0  0  0
   -0.6264  -15.3566   31.7081 H   0  0  0  0  0  0  0  0  0  0  0  0
    1.1204  -13.2776   32.1379 H   0  0  0  0  0  0  0  0  0  0  0  0
    1.5615  -14.7192   31.4377 H   0  0  0  0  0  0  0  0  0  0  0  0
    2.3294  -11.8037   28.5690 H   0  0  0  0  0  0  0  0  0  0  0  0
    2.6640  -11.3042   30.1665 H   0  0  0  0  0  0  0  0  0  0  0  0
    1.8324   -9.8737   27.6815 H   0  0  0  0  0  0  0  0  0  0  0  0
    0.2490   -7.8608   27.1344 H   0  0  0  0  0  0  0  0  0  0  0  0
   -1.1774   -8.1053   30.9137 H   0  0  0  0  0  0  0  0  0  0  0  0
   -0.8401  -10.5047   30.8580 H   0  0  0  0  0  0  0  0  0  0  0  0
    2.1051  -14.9063   28.8398 H   0  0  0  0  0  0  0  0  0  0  0  0
    1.2502  -13.7329   27.9158 H   0  0  0  0  0  0  0  0  0  0  0  0
    0.1047  -15.8802   28.6866 H   0  0  0  0  0  0  0  0  0  0  0  0
    0.3401  -15.7197   30.0730 H   0  0  0  0  0  0  0  0  0  0  0  0
  1  2  1  0
  2  3  1  0
  3  4  1  0
  4  5  1  0
  5  6  1  0
  6  7  2  0
  6  8  2  0
  6  9  1  0
  9 10  1  0
 10 11  1  0
 11 12  1  0
 12 13  1  0
 13 14  1  0
 14 15  1  0
 15 16  2  0
 16 17  1  0
 17 18  2  0
 18 19  1  0
 19 20  2  0
 13 21  1  0
 21 22  1  0
 22 10  1  0
 20 15  1  0
  1 23  1  0
  1 24  1  0
  1 25  1  0
  2 26  1  0
  2 27  1  0
  4 28  1  0
  4 29  1  0
  5 30  1  0
  5 31  1  0
  9 32  1  0
 10 33  1  0
 11 34  1  0
 11 35  1  0
 12 36  1  0
 12 37  1  0
 14 38  1  0
 14 39  1  0
 16 40  1  0
 17 41  1  0
 19 42  1  0
 20 43  1  0
 21 44  1  0
 21 45  1  0
 22 46  1  0
 22 47  1  0
M  END
>  <Energy>  (246) 
1086.2274629328492

>  <compound_id>  (246) 
4974

>  <target_id>  (246) 
1

>  <reference_id>  (246) 
56

>  <inspiration_ids>  (246) 
[9, 56]

>  <energy_score>  (246) 
1089.4726969412588

>  <distance_score>  (246) 
11.183727662254254

>  <path>  (246) 
/opt/xchem-fragalysis-2/maxwin/BulkDock/SCRATCH/511018/C4974-P56/C4974-P56.minimised.mol

>  <scratch_subdir>  (246) 
/opt/xchem-fragalysis-2/maxwin/BulkDock/SCRATCH/511018/C4974-P56

>  <fragmenstein_runtime>  (246) 
15.722022533416748

>  <fragmenstein_outcome>  (246) 
too moved

>  <fragmenstein_mode>  (246) 
expansion

>  <fragmenstein_error>  (246) 


$$$$
C4980-P9
     RDKit          3D

 53 54  0  0  0  0  0  0  0  0999 V2000
   -0.0074   -6.0628   33.0991 C   0  0  0  0  0  0  0  0  0  0  0  0
    0.4113   -7.2821   32.2794 C   0  0  0  0  0  0  0  0  0  0  0  0
   -0.4613   -7.4927   31.0370 C   0  0  0  0  0  0  0  0  0  0  0  0
   -0.0734   -8.6155   29.9921 C   0  0  0  0  0  0  0  0  0  0  0  0
   -1.0340   -9.8248   29.9557 C   0  0  0  0  0  0  0  0  0  0  0  0
   -1.5180  -10.1703   30.9925 O   0  0  0  0  0  0  0  0  0  0  0  0
   -1.2814  -10.3067   28.5542 N   0  0  0  0  0  0  0  0  0  0  0  0
   -2.5372  -11.5360   27.8718 C   0  0  0  0  0  0  0  0  0  0  0  0
   -3.0799  -12.4307   26.2391 C   0  0  0  0  0  0  0  0  0  0  0  0
   -2.3918  -13.7602   25.9243 C   0  0  0  0  0  0  0  0  0  0  0  0
   -2.8745  -14.7977   24.3287 C   0  0  0  0  0  0  0  0  0  0  0  0
   -4.2339  -15.5736   23.6408 N   0  0  0  0  0  0  0  0  0  0  0  0
   -4.4199  -16.3651   21.9820 C   0  0  0  0  0  0  0  0  0  0  0  0
   -3.6062  -16.3658   21.0481 O   0  0  0  0  0  0  0  0  0  0  0  0
   -5.9301  -17.4936   21.5631 C   0  0  0  0  0  0  0  0  0  0  0  0
   -7.0912  -17.7323   20.5204 C   0  0  0  0  0  0  0  0  0  0  0  0
   -7.7577  -19.1255   20.6444 C   0  0  0  0  0  0  0  0  0  0  0  0
   -9.1444  -19.2606   20.6334 C   0  0  0  0  0  0  0  0  0  0  0  0
   -9.7176  -20.4689   21.0186 C   0  0  0  0  0  0  0  0  0  0  0  0
   -9.0223  -21.5938   21.2790 N   0  0  0  0  0  0  0  0  0  0  0  0
   -7.6798  -21.4746   21.1715 C   0  0  0  0  0  0  0  0  0  0  0  0
   -7.0226  -20.3000   20.8274 C   0  0  0  0  0  0  0  0  0  0  0  0
   -4.8541  -13.9398   23.6594 C   0  0  0  0  0  0  0  0  0  0  0  0
   -4.1573  -12.3658   24.6139 C   0  0  0  0  0  0  0  0  0  0  0  0
   -1.0389   -6.1670   33.4504 H   0  0  0  0  0  0  0  0  0  0  0  0
    0.6423   -5.9522   33.9727 H   0  0  0  0  0  0  0  0  0  0  0  0
    0.0617   -5.1480   32.5022 H   0  0  0  0  0  0  0  0  0  0  0  0
    1.4495   -7.1376   31.9733 H   0  0  0  0  0  0  0  0  0  0  0  0
    0.3414   -8.1588   32.9238 H   0  0  0  0  0  0  0  0  0  0  0  0
   -1.4990   -7.6372   31.3611 H   0  0  0  0  0  0  0  0  0  0  0  0
   -0.4542   -6.5419   30.4859 H   0  0  0  0  0  0  0  0  0  0  0  0
    0.9861   -8.7760   29.8351 H   0  0  0  0  0  0  0  0  0  0  0  0
   -0.4142   -8.1494   29.0824 H   0  0  0  0  0  0  0  0  0  0  0  0
   -0.6339   -9.8476   27.9249 H   0  0  0  0  0  0  0  0  0  0  0  0
   -1.8867  -11.2897   27.0967 H   0  0  0  0  0  0  0  0  0  0  0  0
   -2.6348  -12.2079   28.7175 H   0  0  0  0  0  0  0  0  0  0  0  0
   -3.8988  -12.4805   26.9142 H   0  0  0  0  0  0  0  0  0  0  0  0
   -2.2378  -14.4165   26.7815 H   0  0  0  0  0  0  0  0  0  0  0  0
   -1.4642  -13.2894   25.7050 H   0  0  0  0  0  0  0  0  0  0  0  0
   -2.8820  -15.7026   24.9652 H   0  0  0  0  0  0  0  0  0  0  0  0
   -1.9529  -14.7455   23.7509 H   0  0  0  0  0  0  0  0  0  0  0  0
   -6.2434  -17.9519   22.5146 H   0  0  0  0  0  0  0  0  0  0  0  0
   -5.3907  -18.2647   21.0264 H   0  0  0  0  0  0  0  0  0  0  0  0
   -6.7090  -17.6883   19.4984 H   0  0  0  0  0  0  0  0  0  0  0  0
   -7.8582  -16.9721   20.6581 H   0  0  0  0  0  0  0  0  0  0  0  0
   -9.7743  -18.4221   20.3748 H   0  0  0  0  0  0  0  0  0  0  0  0
  -10.7957  -20.5560   21.1247 H   0  0  0  0  0  0  0  0  0  0  0  0
   -7.1083  -22.3750   21.3816 H   0  0  0  0  0  0  0  0  0  0  0  0
   -5.9396  -20.3105   20.7719 H   0  0  0  0  0  0  0  0  0  0  0  0
   -5.6463  -13.3850   23.1060 H   0  0  0  0  0  0  0  0  0  0  0  0
   -5.8920  -14.2596   23.7680 H   0  0  0  0  0  0  0  0  0  0  0  0
   -3.7262  -11.5224   24.0903 H   0  0  0  0  0  0  0  0  0  0  0  0
   -5.2558  -12.0875   24.6168 H   0  0  0  0  0  0  0  0  0  0  0  0
  1  2  1  0
  2  3  1  0
  3  4  1  0
  4  5  1  0
  5  6  2  0
  5  7  1  0
  7  8  1  0
  8  9  1  0
  9 10  1  0
 10 11  1  0
 11 12  1  0
 12 13  1  0
 13 14  2  0
 13 15  1  0
 15 16  1  0
 16 17  1  0
 17 18  2  0
 18 19  1  0
 19 20  2  0
 20 21  1  0
 21 22  2  0
 12 23  1  0
 23 24  1  0
 24  9  1  0
 22 17  1  0
  1 25  1  0
  1 26  1  0
  1 27  1  0
  2 28  1  0
  2 29  1  0
  3 30  1  0
  3 31  1  0
  4 32  1  0
  4 33  1  0
  7 34  1  0
  8 35  1  0
  8 36  1  0
  9 37  1  0
 10 38  1  0
 10 39  1  0
 11 40  1  0
 11 41  1  0
 15 42  1  0
 15 43  1  0
 16 44  1  0
 16 45  1  0
 18 46  1  0
 19 47  1  0
 21 48  1  0
 22 49  1  0
 23 50  1  0
 23 51  1  0
 24 52  1  0
 24 53  1  0
M  END
>  <Energy>  (247) 
690.9788827116214

>  <compound_id>  (247) 
4980

>  <target_id>  (247) 
1

>  <reference_id>  (247) 
9

>  <inspiration_ids>  (247) 
[9, 56]

>  <energy_score>  (247) 
668.482928553469

>  <distance_score>  (247) 
9.439123458075352

>  <path>  (247) 
/opt/xchem-fragalysis-2/maxwin/BulkDock/SCRATCH/511018/C4980-P9/C4980-P9.minimised.mol

>  <scratch_subdir>  (247) 
/opt/xchem-fragalysis-2/maxwin/BulkDock/SCRATCH/511018/C4980-P9

>  <fragmenstein_runtime>  (247) 
22.421778440475464

>  <fragmenstein_outcome>  (247) 
too moved

>  <fragmenstein_mode>  (247) 
expansion

>  <fragmenstein_error>  (247) 


$$$$
C4980-P56
     RDKit          3D

 53 54  0  0  0  0  0  0  0  0999 V2000
   -0.2320   -6.4181   34.3845 C   0  0  0  0  0  0  0  0  0  0  0  0
   -1.2073   -6.9426   33.3303 C   0  0  0  0  0  0  0  0  0  0  0  0
   -0.7209   -8.2466   32.6912 C   0  0  0  0  0  0  0  0  0  0  0  0
   -1.5113   -8.7567   31.4430 C   0  0  0  0  0  0  0  0  0  0  0  0
   -0.8828  -10.0841   30.6899 C   0  0  0  0  0  0  0  0  0  0  0  0
   -0.3057  -10.0571   29.6325 O   0  0  0  0  0  0  0  0  0  0  0  0
   -1.1055  -11.2034   31.6509 N   0  0  0  0  0  0  0  0  0  0  0  0
   -0.4463  -13.0339   31.6752 C   0  0  0  0  0  0  0  0  0  0  0  0
   -0.6243  -14.8999   31.1880 C   0  0  0  0  0  0  0  0  0  0  0  0
   -0.8356  -15.4976   29.7553 C   0  0  0  0  0  0  0  0  0  0  0  0
   -2.1371  -16.3025   29.5936 C   0  0  0  0  0  0  0  0  0  0  0  0
   -2.3085  -17.7348   29.5619 N   0  0  0  0  0  0  0  0  0  0  0  0
   -1.7166  -18.7471   28.6862 C   0  0  0  0  0  0  0  0  0  0  0  0
   -0.8653  -18.6430   27.8296 O   0  0  0  0  0  0  0  0  0  0  0  0
   -2.3620  -20.2185   28.7725 C   0  0  0  0  0  0  0  0  0  0  0  0
   -3.2719  -20.4180   27.4311 C   0  0  0  0  0  0  0  0  0  0  0  0
   -3.8819  -21.6051   26.6455 C   0  0  0  0  0  0  0  0  0  0  0  0
   -5.1673  -21.4605   26.0590 C   0  0  0  0  0  0  0  0  0  0  0  0
   -5.6645  -22.3993   25.1501 C   0  0  0  0  0  0  0  0  0  0  0  0
   -4.9788  -23.4887   24.7667 N   0  0  0  0  0  0  0  0  0  0  0  0
   -3.7453  -23.6187   25.3115 C   0  0  0  0  0  0  0  0  0  0  0  0
   -3.1643  -22.7239   26.2285 C   0  0  0  0  0  0  0  0  0  0  0  0
   -1.4698  -17.6171   30.9561 C   0  0  0  0  0  0  0  0  0  0  0  0
   -1.3080  -16.1769   31.9625 C   0  0  0  0  0  0  0  0  0  0  0  0
    0.7362   -6.1777   33.9353 H   0  0  0  0  0  0  0  0  0  0  0  0
   -0.6261   -5.5089   34.8481 H   0  0  0  0  0  0  0  0  0  0  0  0
   -0.0729   -7.1610   35.1726 H   0  0  0  0  0  0  0  0  0  0  0  0
   -2.1723   -7.1306   33.8059 H   0  0  0  0  0  0  0  0  0  0  0  0
   -1.3484   -6.1781   32.5591 H   0  0  0  0  0  0  0  0  0  0  0  0
    0.3103   -8.0761   32.3810 H   0  0  0  0  0  0  0  0  0  0  0  0
   -0.7367   -9.0222   33.4599 H   0  0  0  0  0  0  0  0  0  0  0  0
   -1.4517   -7.9165   30.7386 H   0  0  0  0  0  0  0  0  0  0  0  0
   -2.5402   -8.9571   31.7628 H   0  0  0  0  0  0  0  0  0  0  0  0
   -1.5696  -10.8380   32.4916 H   0  0  0  0  0  0  0  0  0  0  0  0
   -0.7502  -13.3462   32.7057 H   0  0  0  0  0  0  0  0  0  0  0  0
    0.4991  -12.9519   32.2378 H   0  0  0  0  0  0  0  0  0  0  0  0
    0.4023  -15.1688   31.4734 H   0  0  0  0  0  0  0  0  0  0  0  0
   -0.9230  -14.7809   28.9759 H   0  0  0  0  0  0  0  0  0  0  0  0
    0.0077  -16.1447   29.4836 H   0  0  0  0  0  0  0  0  0  0  0  0
   -2.9982  -15.9210   30.1274 H   0  0  0  0  0  0  0  0  0  0  0  0
   -2.4097  -16.0824   28.5508 H   0  0  0  0  0  0  0  0  0  0  0  0
   -2.9810  -20.3160   29.6685 H   0  0  0  0  0  0  0  0  0  0  0  0
   -1.5563  -20.9577   28.7983 H   0  0  0  0  0  0  0  0  0  0  0  0
   -4.1410  -19.8085   27.7071 H   0  0  0  0  0  0  0  0  0  0  0  0
   -2.6918  -19.9112   26.6508 H   0  0  0  0  0  0  0  0  0  0  0  0
   -5.7681  -20.5851   26.2824 H   0  0  0  0  0  0  0  0  0  0  0  0
   -6.6417  -22.2752   24.6943 H   0  0  0  0  0  0  0  0  0  0  0  0
   -3.1893  -24.4908   24.9756 H   0  0  0  0  0  0  0  0  0  0  0  0
   -2.1478  -22.8915   26.5700 H   0  0  0  0  0  0  0  0  0  0  0  0
   -0.4502  -17.9785   30.7525 H   0  0  0  0  0  0  0  0  0  0  0  0
   -1.9380  -18.3718   31.6021 H   0  0  0  0  0  0  0  0  0  0  0  0
   -2.2884  -15.9865   32.3949 H   0  0  0  0  0  0  0  0  0  0  0  0
   -0.6561  -16.4707   32.7956 H   0  0  0  0  0  0  0  0  0  0  0  0
  1  2  1  0
  2  3  1  0
  3  4  1  0
  4  5  1  0
  5  6  2  0
  5  7  1  0
  7  8  1  0
  8  9  1  0
  9 10  1  0
 10 11  1  0
 11 12  1  0
 12 13  1  0
 13 14  2  0
 13 15  1  0
 15 16  1  0
 16 17  1  0
 17 18  2  0
 18 19  1  0
 19 20  2  0
 20 21  1  0
 21 22  2  0
 12 23  1  0
 23 24  1  0
 24  9  1  0
 22 17  1  0
  1 25  1  0
  1 26  1  0
  1 27  1  0
  2 28  1  0
  2 29  1  0
  3 30  1  0
  3 31  1  0
  4 32  1  0
  4 33  1  0
  7 34  1  0
  8 35  1  0
  8 36  1  0
  9 37  1  0
 10 38  1  0
 10 39  1  0
 11 40  1  0
 11 41  1  0
 15 42  1  0
 15 43  1  0
 16 44  1  0
 16 45  1  0
 18 46  1  0
 19 47  1  0
 21 48  1  0
 22 49  1  0
 23 50  1  0
 23 51  1  0
 24 52  1  0
 24 53  1  0
M  END
>  <Energy>  (248) 
323.26102078975612

>  <compound_id>  (248) 
4980

>  <target_id>  (248) 
1

>  <reference_id>  (248) 
56

>  <inspiration_ids>  (248) 
[9, 56]

>  <energy_score>  (248) 
300.7650666316051

>  <distance_score>  (248) 
11.15163684548119

>  <path>  (248) 
/opt/xchem-fragalysis-2/maxwin/BulkDock/SCRATCH/511018/C4980-P56/C4980-P56.minimised.mol

>  <scratch_subdir>  (248) 
/opt/xchem-fragalysis-2/maxwin/BulkDock/SCRATCH/511018/C4980-P56

>  <fragmenstein_runtime>  (248) 
20.062774896621704

>  <fragmenstein_outcome>  (248) 
too moved

>  <fragmenstein_mode>  (248) 
expansion

>  <fragmenstein_error>  (248) 


$$$$
C4984-P39
     RDKit          3D

 38 41  0  0  0  0  0  0  0  0999 V2000
   -2.9113  -13.5668   29.1047 O   0  0  0  0  0  0  0  0  0  0  0  0
   -3.6348  -12.8918   29.7699 C   0  0  0  0  0  0  0  0  0  0  0  0
   -5.2219  -13.2064   30.2596 N   0  0  0  0  0  0  0  0  0  0  0  0
   -6.2551  -14.6834   30.0410 C   0  0  0  0  0  0  0  0  0  0  0  0
   -6.9610  -15.5463   31.1636 C   0  0  0  0  0  0  0  0  0  0  0  0
   -8.1883  -15.2274   31.7320 C   0  0  0  0  0  0  0  0  0  0  0  0
   -8.5782  -15.6100   33.0263 C   0  0  0  0  0  0  0  0  0  0  0  0
   -7.7515  -16.5282   33.6650 C   0  0  0  0  0  0  0  0  0  0  0  0
   -7.8747  -17.1236   34.8897 N   0  0  0  0  0  0  0  0  0  0  0  0
   -6.8525  -18.0074   35.0798 C   0  0  0  0  0  0  0  0  0  0  0  0
   -6.1229  -18.0767   33.9160 C   0  0  0  0  0  0  0  0  0  0  0  0
   -6.6621  -17.1194   33.0232 C   0  0  0  0  0  0  0  0  0  0  0  0
   -6.3170  -16.6821   31.7243 C   0  0  0  0  0  0  0  0  0  0  0  0
   -3.3765  -11.5173   30.4687 N   0  0  0  0  0  0  0  0  0  0  0  0
   -1.9655  -10.5828   30.6105 C   0  0  0  0  0  0  0  0  0  0  0  0
   -2.2156   -9.5724   31.7206 C   0  0  0  0  0  0  0  0  0  0  0  0
   -1.6462   -8.2704   31.8555 C   0  0  0  0  0  0  0  0  0  0  0  0
   -0.8080   -7.8405   30.8587 C   0  0  0  0  0  0  0  0  0  0  0  0
   -0.4216   -8.6987   29.8405 C   0  0  0  0  0  0  0  0  0  0  0  0
   -0.9252  -10.0598   29.7028 C   0  0  0  0  0  0  0  0  0  0  0  0
    0.2498   -7.9977   28.8686 O   0  0  0  0  0  0  0  0  0  0  0  0
    0.1606   -6.6393   29.3653 C   0  0  0  0  0  0  0  0  0  0  0  0
   -0.4432   -6.5471   30.6657 O   0  0  0  0  0  0  0  0  0  0  0  0
   -5.5301  -12.4868   30.8803 H   0  0  0  0  0  0  0  0  0  0  0  0
   -5.6370  -15.5210   29.7163 H   0  0  0  0  0  0  0  0  0  0  0  0
   -6.9968  -14.4333   29.2794 H   0  0  0  0  0  0  0  0  0  0  0  0
   -8.9309  -14.7457   31.1186 H   0  0  0  0  0  0  0  0  0  0  0  0
   -9.5263  -15.2973   33.4509 H   0  0  0  0  0  0  0  0  0  0  0  0
   -8.6069  -16.9241   35.5559 H   0  0  0  0  0  0  0  0  0  0  0  0
   -6.7534  -18.5339   36.0180 H   0  0  0  0  0  0  0  0  0  0  0  0
   -5.2747  -18.7219   33.7307 H   0  0  0  0  0  0  0  0  0  0  0  0
   -5.4553  -17.1448   31.2492 H   0  0  0  0  0  0  0  0  0  0  0  0
   -4.1677  -11.2720   31.0179 H   0  0  0  0  0  0  0  0  0  0  0  0
   -3.0293   -9.7437   32.4132 H   0  0  0  0  0  0  0  0  0  0  0  0
   -1.9664   -7.6096   32.6524 H   0  0  0  0  0  0  0  0  0  0  0  0
   -0.7340  -10.4629   28.7197 H   0  0  0  0  0  0  0  0  0  0  0  0
   -0.4248   -6.0456   28.6535 H   0  0  0  0  0  0  0  0  0  0  0  0
    1.1583   -6.2082   29.4451 H   0  0  0  0  0  0  0  0  0  0  0  0
  1  2  2  0
  2  3  1  0
  3  4  1  0
  4  5  1  0
  5  6  2  0
  6  7  1  0
  7  8  2  0
  8  9  1  0
  9 10  1  0
 10 11  2  0
 11 12  1  0
 12 13  2  0
  2 14  1  0
 14 15  1  0
 15 16  2  0
 16 17  1  0
 17 18  2  0
 18 19  1  0
 19 20  2  0
 19 21  1  0
 21 22  1  0
 22 23  1  0
 13  5  1  0
 20 15  1  0
 12  8  1  0
 23 18  1  0
  3 24  1  0
  4 25  1  0
  4 26  1  0
  6 27  1  0
  7 28  1  0
  9 29  1  0
 10 30  1  0
 11 31  1  0
 13 32  1  0
 14 33  1  0
 16 34  1  0
 17 35  1  0
 20 36  1  0
 22 37  1  0
 22 38  1  0
M  END
>  <Energy>  (249) 
122.31452706941798

>  <compound_id>  (249) 
4984

>  <target_id>  (249) 
1

>  <reference_id>  (249) 
39

>  <inspiration_ids>  (249) 
[39, 13]

>  <energy_score>  (249) 
141.6436055708146

>  <distance_score>  (249) 
10.267068614548258

>  <path>  (249) 
/opt/xchem-fragalysis-2/maxwin/BulkDock/SCRATCH/511018/C4984-P39/C4984-P39.minimised.mol

>  <scratch_subdir>  (249) 
/opt/xchem-fragalysis-2/maxwin/BulkDock/SCRATCH/511018/C4984-P39

>  <fragmenstein_runtime>  (249) 
20.91676092147827

>  <fragmenstein_outcome>  (249) 
too moved

>  <fragmenstein_mode>  (249) 
expansion

>  <fragmenstein_error>  (249) 


$$$$
C4984-P13
     RDKit          3D

 38 41  0  0  0  0  0  0  0  0999 V2000
   -8.6169   -2.2690   28.5076 O   0  0  0  0  0  0  0  0  0  0  0  0
   -8.2192   -3.3399   28.1731 C   0  0  0  0  0  0  0  0  0  0  0  0
   -8.9210   -4.4743   27.2748 N   0  0  0  0  0  0  0  0  0  0  0  0
  -10.2893   -4.5427   26.7020 C   0  0  0  0  0  0  0  0  0  0  0  0
  -10.8847   -6.0511   26.7069 C   0  0  0  0  0  0  0  0  0  0  0  0
  -11.6495   -6.5260   27.7917 C   0  0  0  0  0  0  0  0  0  0  0  0
  -12.1784   -7.8472   27.8695 C   0  0  0  0  0  0  0  0  0  0  0  0
  -11.9524   -8.7296   26.8048 C   0  0  0  0  0  0  0  0  0  0  0  0
  -12.4036  -10.0184   26.5829 N   0  0  0  0  0  0  0  0  0  0  0  0
  -11.8976  -10.5020   25.4030 C   0  0  0  0  0  0  0  0  0  0  0  0
  -11.1291   -9.5001   24.8461 C   0  0  0  0  0  0  0  0  0  0  0  0
  -11.1891   -8.3492   25.7019 C   0  0  0  0  0  0  0  0  0  0  0  0
  -10.6725   -6.9988   25.6543 C   0  0  0  0  0  0  0  0  0  0  0  0
   -6.9127   -4.0982   28.5614 N   0  0  0  0  0  0  0  0  0  0  0  0
   -5.7953   -3.6906   29.3399 C   0  0  0  0  0  0  0  0  0  0  0  0
   -5.6114   -3.4363   30.8049 C   0  0  0  0  0  0  0  0  0  0  0  0
   -4.2680   -2.9278   31.4454 C   0  0  0  0  0  0  0  0  0  0  0  0
   -3.0373   -2.6898   30.6914 C   0  0  0  0  0  0  0  0  0  0  0  0
   -3.0551   -2.8551   29.2885 C   0  0  0  0  0  0  0  0  0  0  0  0
   -4.5848   -3.2664   28.5450 C   0  0  0  0  0  0  0  0  0  0  0  0
   -2.0175   -2.1992   28.6858 O   0  0  0  0  0  0  0  0  0  0  0  0
   -1.2962   -1.7231   29.8366 C   0  0  0  0  0  0  0  0  0  0  0  0
   -1.9226   -2.0441   31.1090 O   0  0  0  0  0  0  0  0  0  0  0  0
   -8.2802   -5.2216   27.1161 H   0  0  0  0  0  0  0  0  0  0  0  0
  -10.2372   -4.1976   25.6652 H   0  0  0  0  0  0  0  0  0  0  0  0
  -10.9485   -3.8824   27.2729 H   0  0  0  0  0  0  0  0  0  0  0  0
  -11.8726   -5.8442   28.6117 H   0  0  0  0  0  0  0  0  0  0  0  0
  -12.7703   -8.1444   28.7313 H   0  0  0  0  0  0  0  0  0  0  0  0
  -13.0066  -10.5279   27.2136 H   0  0  0  0  0  0  0  0  0  0  0  0
  -12.1245  -11.5045   25.0661 H   0  0  0  0  0  0  0  0  0  0  0  0
  -10.6018   -9.5661   23.9032 H   0  0  0  0  0  0  0  0  0  0  0  0
  -10.0938   -6.7033   24.7806 H   0  0  0  0  0  0  0  0  0  0  0  0
   -6.9283   -5.0257   28.1602 H   0  0  0  0  0  0  0  0  0  0  0  0
   -6.4865   -3.3466   31.4362 H   0  0  0  0  0  0  0  0  0  0  0  0
   -4.2973   -2.6607   32.5033 H   0  0  0  0  0  0  0  0  0  0  0  0
   -4.6919   -2.9632   27.5056 H   0  0  0  0  0  0  0  0  0  0  0  0
   -0.2916   -2.1614   29.8280 H   0  0  0  0  0  0  0  0  0  0  0  0
   -1.2042   -0.6331   29.7656 H   0  0  0  0  0  0  0  0  0  0  0  0
  1  2  2  0
  2  3  1  0
  3  4  1  0
  4  5  1  0
  5  6  2  0
  6  7  1  0
  7  8  2  0
  8  9  1  0
  9 10  1  0
 10 11  2  0
 11 12  1  0
 12 13  2  0
  2 14  1  0
 14 15  1  0
 15 16  2  0
 16 17  1  0
 17 18  2  0
 18 19  1  0
 19 20  2  0
 19 21  1  0
 21 22  1  0
 22 23  1  0
 13  5  1  0
 20 15  1  0
 12  8  1  0
 23 18  1  0
  3 24  1  0
  4 25  1  0
  4 26  1  0
  6 27  1  0
  7 28  1  0
  9 29  1  0
 10 30  1  0
 11 31  1  0
 13 32  1  0
 14 33  1  0
 16 34  1  0
 17 35  1  0
 20 36  1  0
 22 37  1  0
 22 38  1  0
M  END
>  <Energy>  (250) 
79.844614212767027

>  <compound_id>  (250) 
4984

>  <target_id>  (250) 
1

>  <reference_id>  (250) 
13

>  <inspiration_ids>  (250) 
[39, 13]

>  <energy_score>  (250) 
99.1736927141618

>  <distance_score>  (250) 
13.669927627020202

>  <path>  (250) 
/opt/xchem-fragalysis-2/maxwin/BulkDock/SCRATCH/511018/C4984-P13/C4984-P13.minimised.mol

>  <scratch_subdir>  (250) 
/opt/xchem-fragalysis-2/maxwin/BulkDock/SCRATCH/511018/C4984-P13

>  <fragmenstein_runtime>  (250) 
22.991623640060425

>  <fragmenstein_outcome>  (250) 
too moved

>  <fragmenstein_mode>  (250) 
expansion

>  <fragmenstein_error>  (250) 


$$$$
C4987-P39
     RDKit          3D

 37 40  0  0  0  0  0  0  0  0999 V2000
   -7.0242  -14.1026   31.0070 O   0  0  0  0  0  0  0  0  0  0  0  0
   -6.0593  -14.1857   30.2922 C   0  0  0  0  0  0  0  0  0  0  0  0
   -5.9643  -15.8910   29.3401 C   0  0  0  0  0  0  0  0  0  0  0  0
   -7.6951  -17.0299   28.1508 S   0  0  0  0  0  0  0  0  0  0  0  0
   -8.3540  -19.1977   28.5856 C   0  0  0  0  0  0  0  0  0  0  0  0
   -8.5729  -18.4242   27.6503 C   0  0  0  0  0  0  0  0  0  0  0  0
   -7.6561  -20.1160   27.7289 N   0  0  0  0  0  0  0  0  0  0  0  0
   -8.6594  -21.4009   27.4496 C   0  0  0  0  0  0  0  0  0  0  0  0
   -8.5281  -22.7782   27.5735 C   0  0  0  0  0  0  0  0  0  0  0  0
   -9.6943  -23.5122   27.9115 C   0  0  0  0  0  0  0  0  0  0  0  0
  -10.8199  -22.8402   28.3835 C   0  0  0  0  0  0  0  0  0  0  0  0
  -10.7344  -21.4480   28.5707 C   0  0  0  0  0  0  0  0  0  0  0  0
   -9.6586  -20.5920   27.9284 C   0  0  0  0  0  0  0  0  0  0  0  0
   -4.8821  -13.1107   30.0639 N   0  0  0  0  0  0  0  0  0  0  0  0
   -4.6218  -11.8691   30.6918 C   0  0  0  0  0  0  0  0  0  0  0  0
   -3.1990  -11.4610   30.4113 C   0  0  0  0  0  0  0  0  0  0  0  0
   -2.4502  -10.3362   31.1131 C   0  0  0  0  0  0  0  0  0  0  0  0
   -3.0995   -9.4729   31.9987 C   0  0  0  0  0  0  0  0  0  0  0  0
   -4.4348   -9.7467   32.3081 C   0  0  0  0  0  0  0  0  0  0  0  0
   -5.2638  -11.0020   31.6728 C   0  0  0  0  0  0  0  0  0  0  0  0
   -4.8038   -8.9169   33.3502 O   0  0  0  0  0  0  0  0  0  0  0  0
   -3.6522   -8.0643   33.5019 C   0  0  0  0  0  0  0  0  0  0  0  0
   -2.5947   -8.3607   32.5754 O   0  0  0  0  0  0  0  0  0  0  0  0
   -6.3201  -15.2116   28.5959 H   0  0  0  0  0  0  0  0  0  0  0  0
   -4.9846  -16.3317   29.2619 H   0  0  0  0  0  0  0  0  0  0  0  0
   -9.4102  -18.1258   27.0643 H   0  0  0  0  0  0  0  0  0  0  0  0
   -6.7098  -19.9358   27.3635 H   0  0  0  0  0  0  0  0  0  0  0  0
   -7.5209  -23.0487   27.3533 H   0  0  0  0  0  0  0  0  0  0  0  0
   -9.6909  -24.5985   27.9175 H   0  0  0  0  0  0  0  0  0  0  0  0
  -11.6708  -23.3963   28.7647 H   0  0  0  0  0  0  0  0  0  0  0  0
  -11.4887  -20.9710   29.1877 H   0  0  0  0  0  0  0  0  0  0  0  0
   -4.1916  -13.5001   29.4889 H   0  0  0  0  0  0  0  0  0  0  0  0
   -2.7331  -11.9777   29.6019 H   0  0  0  0  0  0  0  0  0  0  0  0
   -1.4621  -10.1628   30.7219 H   0  0  0  0  0  0  0  0  0  0  0  0
   -6.2148  -11.3551   31.9617 H   0  0  0  0  0  0  0  0  0  0  0  0
   -3.9622   -7.0229   33.3879 H   0  0  0  0  0  0  0  0  0  0  0  0
   -3.2654   -8.1911   34.5202 H   0  0  0  0  0  0  0  0  0  0  0  0
  1  2  2  0
  2  3  1  0
  3  4  1  0
  4  5  1  0
  5  6  2  0
  6  7  1  0
  7  8  1  0
  8  9  2  0
  9 10  1  0
 10 11  2  0
 11 12  1  0
 12 13  2  0
  2 14  1  0
 14 15  1  0
 15 16  2  0
 16 17  1  0
 17 18  2  0
 18 19  1  0
 19 20  2  0
 19 21  1  0
 21 22  1  0
 22 23  1  0
 13  5  1  0
 20 15  1  0
 13  8  1  0
 23 18  1  0
  3 24  1  0
  3 25  1  0
  6 26  1  0
  7 27  1  0
  9 28  1  0
 10 29  1  0
 11 30  1  0
 12 31  1  0
 14 32  1  0
 16 33  1  0
 17 34  1  0
 20 35  1  0
 22 36  1  0
 22 37  1  0
M  END
>  <Energy>  (251) 
856.49572308312668

>  <compound_id>  (251) 
4987

>  <target_id>  (251) 
1

>  <reference_id>  (251) 
39

>  <inspiration_ids>  (251) 
[39, 13]

>  <energy_score>  (251) 
771.9947697306953

>  <distance_score>  (251) 
9.188652226838121

>  <path>  (251) 
/opt/xchem-fragalysis-2/maxwin/BulkDock/SCRATCH/511018/C4987-P39/C4987-P39.minimised.mol

>  <scratch_subdir>  (251) 
/opt/xchem-fragalysis-2/maxwin/BulkDock/SCRATCH/511018/C4987-P39

>  <fragmenstein_runtime>  (251) 
20.003046989440918

>  <fragmenstein_outcome>  (251) 
too moved

>  <fragmenstein_mode>  (251) 
expansion

>  <fragmenstein_error>  (251) 


$$$$
C4987-P13
     RDKit          3D

 37 40  0  0  0  0  0  0  0  0999 V2000
   -4.5153  -12.1687   29.1348 O   0  0  0  0  0  0  0  0  0  0  0  0
   -5.7281  -11.9876   29.0544 C   0  0  0  0  0  0  0  0  0  0  0  0
   -6.9650  -13.6982   28.5728 C   0  0  0  0  0  0  0  0  0  0  0  0
   -7.8182  -15.9948   28.1108 S   0  0  0  0  0  0  0  0  0  0  0  0
   -6.4755  -17.8172   28.5823 C   0  0  0  0  0  0  0  0  0  0  0  0
   -6.9237  -18.7894   29.4266 C   0  0  0  0  0  0  0  0  0  0  0  0
   -7.5074  -19.5390   28.4648 N   0  0  0  0  0  0  0  0  0  0  0  0
   -6.4694  -20.1569   27.7973 C   0  0  0  0  0  0  0  0  0  0  0  0
   -5.9600  -21.5703   27.5650 C   0  0  0  0  0  0  0  0  0  0  0  0
   -4.6623  -21.9202   27.1912 C   0  0  0  0  0  0  0  0  0  0  0  0
   -3.7417  -20.9768   27.3197 C   0  0  0  0  0  0  0  0  0  0  0  0
   -4.2636  -19.7466   27.6599 C   0  0  0  0  0  0  0  0  0  0  0  0
   -5.6792  -19.0894   27.7339 C   0  0  0  0  0  0  0  0  0  0  0  0
   -6.5483  -10.2595   29.4981 N   0  0  0  0  0  0  0  0  0  0  0  0
   -5.7732   -8.5780   29.9715 C   0  0  0  0  0  0  0  0  0  0  0  0
   -4.6816   -8.6335   31.5093 C   0  0  0  0  0  0  0  0  0  0  0  0
   -3.4378   -8.0070   32.2054 C   0  0  0  0  0  0  0  0  0  0  0  0
   -2.5101   -7.5488   31.2932 C   0  0  0  0  0  0  0  0  0  0  0  0
   -2.9053   -7.4291   29.8384 C   0  0  0  0  0  0  0  0  0  0  0  0
   -4.5056   -7.8248   29.0517 C   0  0  0  0  0  0  0  0  0  0  0  0
   -1.6976   -7.2028   29.2032 O   0  0  0  0  0  0  0  0  0  0  0  0
   -0.7275   -7.0339   30.2961 C   0  0  0  0  0  0  0  0  0  0  0  0
   -1.2581   -7.1846   31.5949 O   0  0  0  0  0  0  0  0  0  0  0  0
   -7.0620  -13.9372   29.6211 H   0  0  0  0  0  0  0  0  0  0  0  0
   -7.6658  -13.3829   27.8122 H   0  0  0  0  0  0  0  0  0  0  0  0
   -7.2886  -18.7455   30.4275 H   0  0  0  0  0  0  0  0  0  0  0  0
   -8.2321  -18.9430   28.1337 H   0  0  0  0  0  0  0  0  0  0  0  0
   -6.7887  -22.2843   27.5537 H   0  0  0  0  0  0  0  0  0  0  0  0
   -4.3259  -22.8877   26.8475 H   0  0  0  0  0  0  0  0  0  0  0  0
   -2.6852  -21.1290   27.1563 H   0  0  0  0  0  0  0  0  0  0  0  0
   -3.4826  -18.9981   27.6946 H   0  0  0  0  0  0  0  0  0  0  0  0
   -7.5024  -10.2872   29.2935 H   0  0  0  0  0  0  0  0  0  0  0  0
   -3.8868   -9.3088   31.1695 H   0  0  0  0  0  0  0  0  0  0  0  0
   -3.2637   -8.1296   33.2654 H   0  0  0  0  0  0  0  0  0  0  0  0
   -4.5775   -7.9585   27.9690 H   0  0  0  0  0  0  0  0  0  0  0  0
   -0.2971   -6.0259   30.2396 H   0  0  0  0  0  0  0  0  0  0  0  0
    0.0728   -7.7699   30.1509 H   0  0  0  0  0  0  0  0  0  0  0  0
  1  2  2  0
  2  3  1  0
  3  4  1  0
  4  5  1  0
  5  6  2  0
  6  7  1  0
  7  8  1  0
  8  9  2  0
  9 10  1  0
 10 11  2  0
 11 12  1  0
 12 13  2  0
  2 14  1  0
 14 15  1  0
 15 16  2  0
 16 17  1  0
 17 18  2  0
 18 19  1  0
 19 20  2  0
 19 21  1  0
 21 22  1  0
 22 23  1  0
 13  5  1  0
 20 15  1  0
 13  8  1  0
 23 18  1  0
  3 24  1  0
  3 25  1  0
  6 26  1  0
  7 27  1  0
  9 28  1  0
 10 29  1  0
 11 30  1  0
 12 31  1  0
 14 32  1  0
 16 33  1  0
 17 34  1  0
 20 35  1  0
 22 36  1  0
 22 37  1  0
M  END
>  <Energy>  (252) 
1029.8481970351636

>  <compound_id>  (252) 
4987

>  <target_id>  (252) 
1

>  <reference_id>  (252) 
13

>  <inspiration_ids>  (252) 
[39, 13]

>  <energy_score>  (252) 
945.3472436827357

>  <distance_score>  (252) 
8.988608885127613

>  <path>  (252) 
/opt/xchem-fragalysis-2/maxwin/BulkDock/SCRATCH/511018/C4987-P13/C4987-P13.minimised.mol

>  <scratch_subdir>  (252) 
/opt/xchem-fragalysis-2/maxwin/BulkDock/SCRATCH/511018/C4987-P13

>  <fragmenstein_runtime>  (252) 
25.740973472595215

>  <fragmenstein_outcome>  (252) 
too moved

>  <fragmenstein_mode>  (252) 
expansion

>  <fragmenstein_error>  (252) 


$$$$
C4988-P39
     RDKit          3D

 56 59  0  0  0  0  0  0  0  0999 V2000
  -10.5984  -24.0293   26.5613 C   0  0  0  0  0  0  0  0  0  0  0  0
   -9.1912  -23.6471   27.2768 C   0  0  0  0  0  0  0  0  0  0  0  0
   -8.3018  -22.3073   27.3129 N   0  0  0  0  0  0  0  0  0  0  0  0
   -9.7669  -22.1714   28.4525 C   0  0  0  0  0  0  0  0  0  0  0  0
  -10.9121  -23.2169   29.0720 C   0  0  0  0  0  0  0  0  0  0  0  0
   -6.4448  -22.0776   27.6345 C   0  0  0  0  0  0  0  0  0  0  0  0
   -5.7119  -22.9810   27.9588 O   0  0  0  0  0  0  0  0  0  0  0  0
   -5.4723  -20.2202   27.2484 C   0  0  0  0  0  0  0  0  0  0  0  0
   -5.2006  -18.2533   27.7120 N   0  0  0  0  0  0  0  0  0  0  0  0
   -5.1136  -16.7988   28.9726 C   0  0  0  0  0  0  0  0  0  0  0  0
   -4.0645  -16.1410   29.5416 C   0  0  0  0  0  0  0  0  0  0  0  0
   -2.8390  -14.5586   29.1971 S   0  0  0  0  0  0  0  0  0  0  0  0
   -3.4004  -12.4087   29.7486 C   0  0  0  0  0  0  0  0  0  0  0  0
   -2.3724  -10.8771   30.4210 C   0  0  0  0  0  0  0  0  0  0  0  0
   -2.8496  -10.3977   31.4253 O   0  0  0  0  0  0  0  0  0  0  0  0
   -1.2188  -10.4140   29.5877 N   0  0  0  0  0  0  0  0  0  0  0  0
   -0.3998   -9.2104   29.6702 C   0  0  0  0  0  0  0  0  0  0  0  0
    0.1847   -8.9246   28.4292 C   0  0  0  0  0  0  0  0  0  0  0  0
    0.1593   -7.6194   27.9294 C   0  0  0  0  0  0  0  0  0  0  0  0
   -0.0717   -6.5728   28.7916 C   0  0  0  0  0  0  0  0  0  0  0  0
   -0.3819   -6.8073   30.1014 C   0  0  0  0  0  0  0  0  0  0  0  0
   -0.6314   -8.1066   30.5476 C   0  0  0  0  0  0  0  0  0  0  0  0
   -0.5287   -5.6378   30.7921 O   0  0  0  0  0  0  0  0  0  0  0  0
   -0.1144   -4.6689   29.7905 C   0  0  0  0  0  0  0  0  0  0  0  0
   -0.0158   -5.2507   28.4783 O   0  0  0  0  0  0  0  0  0  0  0  0
   -5.6222  -16.5852   29.9899 C   0  0  0  0  0  0  0  0  0  0  0  0
   -6.1858  -17.2723   31.3113 C   0  0  0  0  0  0  0  0  0  0  0  0
   -6.9545  -18.3072   30.4642 C   0  0  0  0  0  0  0  0  0  0  0  0
   -7.9427  -18.1702   28.8917 C   0  0  0  0  0  0  0  0  0  0  0  0
   -7.7978  -17.1305   28.0916 C   0  0  0  0  0  0  0  0  0  0  0  0
   -6.4478  -17.2819   28.4920 C   0  0  0  0  0  0  0  0  0  0  0  0
  -10.4684  -24.2996   25.5061 H   0  0  0  0  0  0  0  0  0  0  0  0
  -11.3679  -23.2533   26.5587 H   0  0  0  0  0  0  0  0  0  0  0  0
  -10.9962  -24.9374   27.0303 H   0  0  0  0  0  0  0  0  0  0  0  0
   -8.6993  -23.9087   26.3592 H   0  0  0  0  0  0  0  0  0  0  0  0
   -9.0129  -24.3193   28.1255 H   0  0  0  0  0  0  0  0  0  0  0  0
  -10.0616  -21.2608   29.0209 H   0  0  0  0  0  0  0  0  0  0  0  0
  -10.4332  -21.7401   27.6820 H   0  0  0  0  0  0  0  0  0  0  0  0
  -10.5708  -24.2311   29.3004 H   0  0  0  0  0  0  0  0  0  0  0  0
  -11.8318  -23.2341   28.4811 H   0  0  0  0  0  0  0  0  0  0  0  0
  -11.2642  -22.7934   30.0263 H   0  0  0  0  0  0  0  0  0  0  0  0
   -4.3824  -20.4360   27.2496 H   0  0  0  0  0  0  0  0  0  0  0  0
   -5.6912  -19.8468   26.3054 H   0  0  0  0  0  0  0  0  0  0  0  0
   -5.8493  -15.6943   28.5890 H   0  0  0  0  0  0  0  0  0  0  0  0
   -3.5499  -12.0112   28.7710 H   0  0  0  0  0  0  0  0  0  0  0  0
   -4.4112  -12.4266   30.1727 H   0  0  0  0  0  0  0  0  0  0  0  0
   -1.0406  -11.0882   28.8741 H   0  0  0  0  0  0  0  0  0  0  0  0
    0.4313   -9.7301   27.7458 H   0  0  0  0  0  0  0  0  0  0  0  0
    0.3408   -7.4516   26.8726 H   0  0  0  0  0  0  0  0  0  0  0  0
   -1.1082   -8.2456   31.5154 H   0  0  0  0  0  0  0  0  0  0  0  0
   -0.8422   -3.8508   29.7666 H   0  0  0  0  0  0  0  0  0  0  0  0
    0.8627   -4.2614   30.0781 H   0  0  0  0  0  0  0  0  0  0  0  0
   -5.7326  -17.3417   32.2949 H   0  0  0  0  0  0  0  0  0  0  0  0
   -6.5102  -19.2562   30.5481 H   0  0  0  0  0  0  0  0  0  0  0  0
   -8.3334  -19.0454   28.4003 H   0  0  0  0  0  0  0  0  0  0  0  0
   -8.3150  -17.0239   27.1687 H   0  0  0  0  0  0  0  0  0  0  0  0
  1  2  1  0
  2  3  1  0
  3  4  1  0
  4  5  1  0
  3  6  1  0
  6  7  2  0
  6  8  1  0
  8  9  1  0
  9 10  1  0
 10 11  2  0
 11 12  1  0
 12 13  1  0
 13 14  1  0
 14 15  2  0
 14 16  1  0
 16 17  1  0
 17 18  2  0
 18 19  1  0
 19 20  2  0
 20 21  1  0
 21 22  2  0
 21 23  1  0
 23 24  1  0
 24 25  1  0
 11 26  1  0
 26 27  2  0
 27 28  1  0
 28 29  2  0
 29 30  1  0
 30 31  2  0
 31  9  1  0
 22 17  1  0
 31 26  1  0
 25 20  1  0
  1 32  1  0
  1 33  1  0
  1 34  1  0
  2 35  1  0
  2 36  1  0
  4 37  1  0
  4 38  1  0
  5 39  1  0
  5 40  1  0
  5 41  1  0
  8 42  1  0
  8 43  1  0
 10 44  1  0
 13 45  1  0
 13 46  1  0
 16 47  1  0
 18 48  1  0
 19 49  1  0
 22 50  1  0
 24 51  1  0
 24 52  1  0
 27 53  1  0
 28 54  1  0
 29 55  1  0
 30 56  1  0
M  END
>  <Energy>  (253) 
1601.7339282689138

>  <compound_id>  (253) 
4988

>  <target_id>  (253) 
1

>  <reference_id>  (253) 
39

>  <inspiration_ids>  (253) 
[39, 13]

>  <energy_score>  (253) 
1484.0466027804673

>  <distance_score>  (253) 
8.54479175814961

>  <path>  (253) 
/opt/xchem-fragalysis-2/maxwin/BulkDock/SCRATCH/511018/C4988-P39/C4988-P39.minimised.mol

>  <scratch_subdir>  (253) 
/opt/xchem-fragalysis-2/maxwin/BulkDock/SCRATCH/511018/C4988-P39

>  <fragmenstein_runtime>  (253) 
34.45959663391113

>  <fragmenstein_outcome>  (253) 
too moved

>  <fragmenstein_mode>  (253) 
expansion

>  <fragmenstein_error>  (253) 


$$$$
C4988-P13
     RDKit          3D

 56 59  0  0  0  0  0  0  0  0999 V2000
  -16.5706  -23.8728   24.8377 C   0  0  0  0  0  0  0  0  0  0  0  0
  -15.1753  -23.2081   24.7540 C   0  0  0  0  0  0  0  0  0  0  0  0
  -13.9501  -23.2615   25.6378 N   0  0  0  0  0  0  0  0  0  0  0  0
  -13.9819  -24.7387   25.2126 C   0  0  0  0  0  0  0  0  0  0  0  0
  -13.0474  -25.6640   26.0260 C   0  0  0  0  0  0  0  0  0  0  0  0
  -12.6208  -22.7071   25.4428 C   0  0  0  0  0  0  0  0  0  0  0  0
  -12.1437  -22.1481   24.4883 O   0  0  0  0  0  0  0  0  0  0  0  0
  -11.6882  -22.7646   26.7672 C   0  0  0  0  0  0  0  0  0  0  0  0
  -11.1555  -21.4041   27.3488 N   0  0  0  0  0  0  0  0  0  0  0  0
   -9.5962  -20.6294   27.7224 C   0  0  0  0  0  0  0  0  0  0  0  0
   -9.3416  -18.8782   28.1546 C   0  0  0  0  0  0  0  0  0  0  0  0
   -8.2773  -16.6550   27.8685 S   0  0  0  0  0  0  0  0  0  0  0  0
   -7.5510  -14.2291   28.5026 C   0  0  0  0  0  0  0  0  0  0  0  0
   -6.5211  -12.2817   28.3415 C   0  0  0  0  0  0  0  0  0  0  0  0
   -5.9425  -12.1678   27.2541 O   0  0  0  0  0  0  0  0  0  0  0  0
   -6.5538  -10.6434   29.6017 N   0  0  0  0  0  0  0  0  0  0  0  0
   -5.9571   -8.8099   29.4322 C   0  0  0  0  0  0  0  0  0  0  0  0
   -5.1198   -8.7138   31.1808 C   0  0  0  0  0  0  0  0  0  0  0  0
   -3.5637   -8.3502   31.7059 C   0  0  0  0  0  0  0  0  0  0  0  0
   -2.6580   -7.6674   30.9629 C   0  0  0  0  0  0  0  0  0  0  0  0
   -3.1097   -7.4451   29.5675 C   0  0  0  0  0  0  0  0  0  0  0  0
   -4.7190   -7.9202   28.7878 C   0  0  0  0  0  0  0  0  0  0  0  0
   -1.8876   -7.1620   28.9608 O   0  0  0  0  0  0  0  0  0  0  0  0
   -0.9111   -7.0677   30.0864 C   0  0  0  0  0  0  0  0  0  0  0  0
   -1.4178   -7.4017   31.3381 O   0  0  0  0  0  0  0  0  0  0  0  0
  -10.4322  -20.3457   29.2477 C   0  0  0  0  0  0  0  0  0  0  0  0
  -10.5300  -21.8421   29.5223 C   0  0  0  0  0  0  0  0  0  0  0  0
  -11.5228  -22.1887   30.2826 C   0  0  0  0  0  0  0  0  0  0  0  0
  -12.2358  -21.0996   30.4091 C   0  0  0  0  0  0  0  0  0  0  0  0
  -12.8275  -20.7793   29.2716 C   0  0  0  0  0  0  0  0  0  0  0  0
  -11.7676  -20.9996   28.5018 C   0  0  0  0  0  0  0  0  0  0  0  0
  -16.5933  -24.9078   24.4842 H   0  0  0  0  0  0  0  0  0  0  0  0
  -17.0290  -23.8264   25.8246 H   0  0  0  0  0  0  0  0  0  0  0  0
  -17.2542  -23.3219   24.1806 H   0  0  0  0  0  0  0  0  0  0  0  0
  -14.7952  -23.0419   23.7475 H   0  0  0  0  0  0  0  0  0  0  0  0
  -15.4886  -22.1692   24.9113 H   0  0  0  0  0  0  0  0  0  0  0  0
  -13.8008  -24.8639   24.1491 H   0  0  0  0  0  0  0  0  0  0  0  0
  -14.9225  -25.2524   25.4285 H   0  0  0  0  0  0  0  0  0  0  0  0
  -13.3576  -25.7221   27.0618 H   0  0  0  0  0  0  0  0  0  0  0  0
  -11.9961  -25.3788   26.0318 H   0  0  0  0  0  0  0  0  0  0  0  0
  -13.1270  -26.6913   25.6590 H   0  0  0  0  0  0  0  0  0  0  0  0
  -12.2723  -23.2096   27.5628 H   0  0  0  0  0  0  0  0  0  0  0  0
  -10.8387  -23.4382   26.6348 H   0  0  0  0  0  0  0  0  0  0  0  0
   -8.5583  -21.1770   27.6495 H   0  0  0  0  0  0  0  0  0  0  0  0
   -7.9913  -14.0249   27.5174 H   0  0  0  0  0  0  0  0  0  0  0  0
   -6.6093  -14.6787   28.7759 H   0  0  0  0  0  0  0  0  0  0  0  0
   -6.9787  -10.9004   30.4723 H   0  0  0  0  0  0  0  0  0  0  0  0
   -5.3459   -9.5409   31.8441 H   0  0  0  0  0  0  0  0  0  0  0  0
   -3.1998   -8.6535   32.6903 H   0  0  0  0  0  0  0  0  0  0  0  0
   -4.6643   -7.9889   27.7099 H   0  0  0  0  0  0  0  0  0  0  0  0
   -0.0822   -7.7545   29.8675 H   0  0  0  0  0  0  0  0  0  0  0  0
   -0.5291   -6.0388   30.1516 H   0  0  0  0  0  0  0  0  0  0  0  0
  -10.1329  -22.6244   28.8458 H   0  0  0  0  0  0  0  0  0  0  0  0
  -12.1615  -22.8621   29.6734 H   0  0  0  0  0  0  0  0  0  0  0  0
  -12.4391  -20.7513   31.3744 H   0  0  0  0  0  0  0  0  0  0  0  0
  -13.2687  -19.8093   29.3684 H   0  0  0  0  0  0  0  0  0  0  0  0
  1  2  1  0
  2  3  1  0
  3  4  1  0
  4  5  1  0
  3  6  1  0
  6  7  2  0
  6  8  1  0
  8  9  1  0
  9 10  1  0
 10 11  2  0
 11 12  1  0
 12 13  1  0
 13 14  1  0
 14 15  2  0
 14 16  1  0
 16 17  1  0
 17 18  2  0
 18 19  1  0
 19 20  2  0
 20 21  1  0
 21 22  2  0
 21 23  1  0
 23 24  1  0
 24 25  1  0
 11 26  1  0
 26 27  2  0
 27 28  1  0
 28 29  2  0
 29 30  1  0
 30 31  2  0
 31  9  1  0
 22 17  1  0
 31 26  1  0
 25 20  1  0
  1 32  1  0
  1 33  1  0
  1 34  1  0
  2 35  1  0
  2 36  1  0
  4 37  1  0
  4 38  1  0
  5 39  1  0
  5 40  1  0
  5 41  1  0
  8 42  1  0
  8 43  1  0
 10 44  1  0
 13 45  1  0
 13 46  1  0
 16 47  1  0
 18 48  1  0
 19 49  1  0
 22 50  1  0
 24 51  1  0
 24 52  1  0
 27 53  1  0
 28 54  1  0
 29 55  1  0
 30 56  1  0
M  END
>  <Energy>  (254) 
2070.6627956371681

>  <compound_id>  (254) 
4988

>  <target_id>  (254) 
1

>  <reference_id>  (254) 
13

>  <inspiration_ids>  (254) 
[39, 13]

>  <energy_score>  (254) 
1952.9754701487177

>  <distance_score>  (254) 
7.414918341068428

>  <path>  (254) 
/opt/xchem-fragalysis-2/maxwin/BulkDock/SCRATCH/511018/C4988-P13/C4988-P13.minimised.mol

>  <scratch_subdir>  (254) 
/opt/xchem-fragalysis-2/maxwin/BulkDock/SCRATCH/511018/C4988-P13

>  <fragmenstein_runtime>  (254) 
30.670037508010864

>  <fragmenstein_outcome>  (254) 
too moved

>  <fragmenstein_mode>  (254) 
expansion

>  <fragmenstein_error>  (254) 


$$$$
C4989-P39
     RDKit          3D

 40 43  0  0  0  0  0  0  0  0999 V2000
   -8.4932  -22.4266   27.6331 C   0  0  0  0  0  0  0  0  0  0  0  0
   -9.3529  -20.8721   27.5505 C   0  0  0  0  0  0  0  0  0  0  0  0
  -10.7317  -21.2288   27.4757 N   0  0  0  0  0  0  0  0  0  0  0  0
  -11.0212  -21.4896   28.7203 C   0  0  0  0  0  0  0  0  0  0  0  0
  -11.9368  -22.4680   29.1895 C   0  0  0  0  0  0  0  0  0  0  0  0
  -12.1796  -22.6233   30.5320 C   0  0  0  0  0  0  0  0  0  0  0  0
  -11.5057  -21.7970   31.3735 C   0  0  0  0  0  0  0  0  0  0  0  0
  -10.6112  -20.8291   30.8301 C   0  0  0  0  0  0  0  0  0  0  0  0
  -10.1898  -20.4624   29.2975 C   0  0  0  0  0  0  0  0  0  0  0  0
   -8.7977  -19.2142   28.2870 C   0  0  0  0  0  0  0  0  0  0  0  0
   -7.8726  -16.8639   28.0269 S   0  0  0  0  0  0  0  0  0  0  0  0
   -7.0641  -14.3428   28.5199 C   0  0  0  0  0  0  0  0  0  0  0  0
   -5.8369  -12.5208   29.2110 C   0  0  0  0  0  0  0  0  0  0  0  0
   -4.6975  -12.7332   29.5790 O   0  0  0  0  0  0  0  0  0  0  0  0
   -6.4886  -10.5580   29.4729 N   0  0  0  0  0  0  0  0  0  0  0  0
   -5.6858   -8.9422   30.1963 C   0  0  0  0  0  0  0  0  0  0  0  0
   -4.5879   -8.8058   31.6410 C   0  0  0  0  0  0  0  0  0  0  0  0
   -3.2204   -8.1081   31.8788 C   0  0  0  0  0  0  0  0  0  0  0  0
   -2.5594   -7.4028   30.8207 C   0  0  0  0  0  0  0  0  0  0  0  0
   -3.2456   -7.3155   29.4241 C   0  0  0  0  0  0  0  0  0  0  0  0
   -4.8890   -7.9580   28.9856 C   0  0  0  0  0  0  0  0  0  0  0  0
   -2.1922   -6.9770   28.5117 O   0  0  0  0  0  0  0  0  0  0  0  0
   -1.0023   -6.8897   29.3459 C   0  0  0  0  0  0  0  0  0  0  0  0
   -1.2653   -6.9967   30.7706 O   0  0  0  0  0  0  0  0  0  0  0  0
   -9.1103  -23.1234   28.2037 H   0  0  0  0  0  0  0  0  0  0  0  0
   -8.3359  -22.9565   26.6988 H   0  0  0  0  0  0  0  0  0  0  0  0
   -7.4806  -22.3198   27.9612 H   0  0  0  0  0  0  0  0  0  0  0  0
  -11.2387  -21.6556   26.7078 H   0  0  0  0  0  0  0  0  0  0  0  0
  -12.4313  -23.1264   28.4785 H   0  0  0  0  0  0  0  0  0  0  0  0
  -12.8673  -23.3771   30.9048 H   0  0  0  0  0  0  0  0  0  0  0  0
  -11.6410  -21.8754   32.4490 H   0  0  0  0  0  0  0  0  0  0  0  0
  -10.1603  -20.3121   31.6836 H   0  0  0  0  0  0  0  0  0  0  0  0
   -8.0877  -14.0537   28.7196 H   0  0  0  0  0  0  0  0  0  0  0  0
   -6.3473  -14.8873   29.1495 H   0  0  0  0  0  0  0  0  0  0  0  0
   -7.3458  -10.4590   29.0873 H   0  0  0  0  0  0  0  0  0  0  0  0
   -4.7691   -9.5663   32.4224 H   0  0  0  0  0  0  0  0  0  0  0  0
   -2.7092   -8.2932   32.8214 H   0  0  0  0  0  0  0  0  0  0  0  0
   -5.1521   -8.0882   27.9488 H   0  0  0  0  0  0  0  0  0  0  0  0
   -0.5048   -5.9334   29.1502 H   0  0  0  0  0  0  0  0  0  0  0  0
   -0.3214   -7.6992   29.0583 H   0  0  0  0  0  0  0  0  0  0  0  0
  1  2  1  0
  2  3  1  0
  3  4  1  0
  4  5  2  0
  5  6  1  0
  6  7  2  0
  7  8  1  0
  8  9  2  0
  9 10  1  0
 10 11  1  0
 11 12  1  0
 12 13  1  0
 13 14  2  0
 13 15  1  0
 15 16  1  0
 16 17  2  0
 17 18  1  0
 18 19  2  0
 19 20  1  0
 20 21  2  0
 20 22  1  0
 22 23  1  0
 23 24  1  0
 10  2  2  0
 21 16  1  0
  9  4  1  0
 24 19  1  0
  1 25  1  0
  1 26  1  0
  1 27  1  0
  3 28  1  0
  5 29  1  0
  6 30  1  0
  7 31  1  0
  8 32  1  0
 12 33  1  0
 12 34  1  0
 15 35  1  0
 17 36  1  0
 18 37  1  0
 21 38  1  0
 23 39  1  0
 23 40  1  0
M  END
>  <Energy>  (255) 
1767.5702198552854

>  <compound_id>  (255) 
4989

>  <target_id>  (255) 
1

>  <reference_id>  (255) 
39

>  <inspiration_ids>  (255) 
[39, 13]

>  <energy_score>  (255) 
1669.8164510436447

>  <distance_score>  (255) 
7.258448528407768

>  <path>  (255) 
/opt/xchem-fragalysis-2/maxwin/BulkDock/SCRATCH/511018/C4989-P39/C4989-P39.minimised.mol

>  <scratch_subdir>  (255) 
/opt/xchem-fragalysis-2/maxwin/BulkDock/SCRATCH/511018/C4989-P39

>  <fragmenstein_runtime>  (255) 
15.888599395751953

>  <fragmenstein_outcome>  (255) 
too moved

>  <fragmenstein_mode>  (255) 
expansion

>  <fragmenstein_error>  (255) 


$$$$
C4989-P13
     RDKit          3D

 40 43  0  0  0  0  0  0  0  0999 V2000
   -4.2297  -20.8063   27.4730 C   0  0  0  0  0  0  0  0  0  0  0  0
   -5.6998  -20.8733   27.6389 C   0  0  0  0  0  0  0  0  0  0  0  0
   -6.2594  -22.1192   27.3006 N   0  0  0  0  0  0  0  0  0  0  0  0
   -7.6209  -22.4570   27.5355 C   0  0  0  0  0  0  0  0  0  0  0  0
   -8.6332  -23.5721   27.2897 C   0  0  0  0  0  0  0  0  0  0  0  0
  -10.0167  -23.8152   27.5650 C   0  0  0  0  0  0  0  0  0  0  0  0
  -10.7507  -22.8283   28.1053 C   0  0  0  0  0  0  0  0  0  0  0  0
  -10.0156  -21.6597   28.2159 C   0  0  0  0  0  0  0  0  0  0  0  0
   -8.2101  -21.2703   27.7975 C   0  0  0  0  0  0  0  0  0  0  0  0
   -6.8195  -20.0778   27.9574 C   0  0  0  0  0  0  0  0  0  0  0  0
   -6.7570  -18.4464   28.8052 S   0  0  0  0  0  0  0  0  0  0  0  0
   -5.4478  -16.5959   29.5161 C   0  0  0  0  0  0  0  0  0  0  0  0
   -4.8410  -15.5073   30.8756 C   0  0  0  0  0  0  0  0  0  0  0  0
   -5.7336  -15.2953   31.6615 O   0  0  0  0  0  0  0  0  0  0  0  0
   -3.2597  -14.9858   30.9381 N   0  0  0  0  0  0  0  0  0  0  0  0
   -2.5349  -14.0078   31.9573 C   0  0  0  0  0  0  0  0  0  0  0  0
   -1.3755  -12.2702   31.8844 C   0  0  0  0  0  0  0  0  0  0  0  0
    0.0332  -12.0391   32.5082 C   0  0  0  0  0  0  0  0  0  0  0  0
    0.3838  -13.0425   33.3709 C   0  0  0  0  0  0  0  0  0  0  0  0
   -0.3114  -14.3159   33.5037 C   0  0  0  0  0  0  0  0  0  0  0  0
   -1.5482  -14.8969   32.8223 C   0  0  0  0  0  0  0  0  0  0  0  0
    0.4558  -15.1210   34.3175 O   0  0  0  0  0  0  0  0  0  0  0  0
    1.5696  -14.2681   34.6606 C   0  0  0  0  0  0  0  0  0  0  0  0
    1.5188  -12.9518   34.1081 O   0  0  0  0  0  0  0  0  0  0  0  0
   -3.8112  -19.8385   27.6825 H   0  0  0  0  0  0  0  0  0  0  0  0
   -3.7407  -21.5285   28.1367 H   0  0  0  0  0  0  0  0  0  0  0  0
   -3.9487  -21.0629   26.4450 H   0  0  0  0  0  0  0  0  0  0  0  0
   -5.7738  -22.5553   26.5267 H   0  0  0  0  0  0  0  0  0  0  0  0
   -8.4062  -24.2095   26.4434 H   0  0  0  0  0  0  0  0  0  0  0  0
  -10.4754  -24.7089   27.1625 H   0  0  0  0  0  0  0  0  0  0  0  0
  -11.8003  -22.8809   28.3377 H   0  0  0  0  0  0  0  0  0  0  0  0
  -10.5723  -20.9730   28.8583 H   0  0  0  0  0  0  0  0  0  0  0  0
   -6.1303  -15.8048   29.1856 H   0  0  0  0  0  0  0  0  0  0  0  0
   -6.0128  -16.9838   30.3202 H   0  0  0  0  0  0  0  0  0  0  0  0
   -2.7899  -15.2488   30.1059 H   0  0  0  0  0  0  0  0  0  0  0  0
   -1.2616  -11.4571   31.0670 H   0  0  0  0  0  0  0  0  0  0  0  0
    0.6101  -11.1444   32.3253 H   0  0  0  0  0  0  0  0  0  0  0  0
   -1.4536  -15.9614   32.6242 H   0  0  0  0  0  0  0  0  0  0  0  0
    1.6118  -14.1871   35.7529 H   0  0  0  0  0  0  0  0  0  0  0  0
    2.4903  -14.7563   34.3200 H   0  0  0  0  0  0  0  0  0  0  0  0
  1  2  1  0
  2  3  1  0
  3  4  1  0
  4  5  2  0
  5  6  1  0
  6  7  2  0
  7  8  1  0
  8  9  2  0
  9 10  1  0
 10 11  1  0
 11 12  1  0
 12 13  1  0
 13 14  2  0
 13 15  1  0
 15 16  1  0
 16 17  2  0
 17 18  1  0
 18 19  2  0
 19 20  1  0
 20 21  2  0
 20 22  1  0
 22 23  1  0
 23 24  1  0
 10  2  2  0
 21 16  1  0
  9  4  1  0
 24 19  1  0
  1 25  1  0
  1 26  1  0
  1 27  1  0
  3 28  1  0
  5 29  1  0
  6 30  1  0
  7 31  1  0
  8 32  1  0
 12 33  1  0
 12 34  1  0
 15 35  1  0
 17 36  1  0
 18 37  1  0
 21 38  1  0
 23 39  1  0
 23 40  1  0
M  END
>  <Energy>  (256) 
760.01491805356648

>  <compound_id>  (256) 
4989

>  <target_id>  (256) 
1

>  <reference_id>  (256) 
13

>  <inspiration_ids>  (256) 
[39, 13]

>  <energy_score>  (256) 
662.2611492419239

>  <distance_score>  (256) 
11.52826086543072

>  <path>  (256) 
/opt/xchem-fragalysis-2/maxwin/BulkDock/SCRATCH/511018/C4989-P13/C4989-P13.minimised.mol

>  <scratch_subdir>  (256) 
/opt/xchem-fragalysis-2/maxwin/BulkDock/SCRATCH/511018/C4989-P13

>  <fragmenstein_runtime>  (256) 
31.39760112762451

>  <fragmenstein_outcome>  (256) 
too moved

>  <fragmenstein_mode>  (256) 
expansion

>  <fragmenstein_error>  (256) 


$$$$
C4990-P39
     RDKit          3D

 47 51  0  0  0  0  0  0  0  0999 V2000
   -4.7419  -12.2279   29.0449 O   0  0  0  0  0  0  0  0  0  0  0  0
   -5.9472  -11.9977   28.9396 C   0  0  0  0  0  0  0  0  0  0  0  0
   -7.1322  -14.0346   28.6112 C   0  0  0  0  0  0  0  0  0  0  0  0
   -7.8994  -16.6369   28.0545 S   0  0  0  0  0  0  0  0  0  0  0  0
   -8.8180  -19.0734   28.2661 C   0  0  0  0  0  0  0  0  0  0  0  0
   -9.4729  -20.8283   27.6244 C   0  0  0  0  0  0  0  0  0  0  0  0
   -9.4095  -22.7332   27.9988 C   0  0  0  0  0  0  0  0  0  0  0  0
  -10.3667  -23.5952   28.7640 C   0  0  0  0  0  0  0  0  0  0  0  0
  -11.1654  -24.7543   28.4520 C   0  0  0  0  0  0  0  0  0  0  0  0
  -11.2777  -25.0954   27.1592 C   0  0  0  0  0  0  0  0  0  0  0  0
  -10.3705  -24.4505   26.3846 C   0  0  0  0  0  0  0  0  0  0  0  0
   -9.2890  -23.6362   26.9556 C   0  0  0  0  0  0  0  0  0  0  0  0
  -10.9176  -21.1082   27.4744 N   0  0  0  0  0  0  0  0  0  0  0  0
  -11.3003  -21.1435   28.7558 C   0  0  0  0  0  0  0  0  0  0  0  0
  -12.3572  -21.9234   29.3272 C   0  0  0  0  0  0  0  0  0  0  0  0
  -12.5057  -22.1684   30.6798 C   0  0  0  0  0  0  0  0  0  0  0  0
  -11.5649  -21.6181   31.4798 C   0  0  0  0  0  0  0  0  0  0  0  0
  -10.5603  -20.8037   30.8780 C   0  0  0  0  0  0  0  0  0  0  0  0
  -10.1857  -20.3785   29.2996 C   0  0  0  0  0  0  0  0  0  0  0  0
   -6.4793   -9.8789   28.9230 N   0  0  0  0  0  0  0  0  0  0  0  0
   -5.3620   -8.0014   28.8925 C   0  0  0  0  0  0  0  0  0  0  0  0
   -3.5030   -7.3084   28.6053 C   0  0  0  0  0  0  0  0  0  0  0  0
   -2.2691   -5.7632   28.2807 C   0  0  0  0  0  0  0  0  0  0  0  0
   -2.9689   -3.9217   28.7519 C   0  0  0  0  0  0  0  0  0  0  0  0
   -5.0460   -4.1478   28.7426 C   0  0  0  0  0  0  0  0  0  0  0  0
   -5.9470   -5.9888   29.0125 C   0  0  0  0  0  0  0  0  0  0  0  0
   -5.2435   -2.8819   28.2034 O   0  0  0  0  0  0  0  0  0  0  0  0
   -3.7894   -2.2127   27.8350 C   0  0  0  0  0  0  0  0  0  0  0  0
   -2.6050   -2.6195   28.6315 O   0  0  0  0  0  0  0  0  0  0  0  0
   -6.5151  -14.3153   29.4904 H   0  0  0  0  0  0  0  0  0  0  0  0
   -8.1926  -13.8446   28.6623 H   0  0  0  0  0  0  0  0  0  0  0  0
  -10.6948  -23.3885   29.7771 H   0  0  0  0  0  0  0  0  0  0  0  0
  -11.7910  -25.2040   29.2190 H   0  0  0  0  0  0  0  0  0  0  0  0
  -11.9840  -25.8190   26.7804 H   0  0  0  0  0  0  0  0  0  0  0  0
  -10.4056  -24.6146   25.3083 H   0  0  0  0  0  0  0  0  0  0  0  0
   -8.4573  -23.4217   26.2821 H   0  0  0  0  0  0  0  0  0  0  0  0
  -11.3438  -21.7030   26.7745 H   0  0  0  0  0  0  0  0  0  0  0  0
  -12.9104  -22.5717   28.6480 H   0  0  0  0  0  0  0  0  0  0  0  0
  -13.2799  -22.8255   31.0650 H   0  0  0  0  0  0  0  0  0  0  0  0
  -11.6007  -21.7572   32.5556 H   0  0  0  0  0  0  0  0  0  0  0  0
  -10.0021  -20.3874   31.7253 H   0  0  0  0  0  0  0  0  0  0  0  0
   -7.4851   -9.7917   28.9182 H   0  0  0  0  0  0  0  0  0  0  0  0
   -3.0446   -7.3622   29.6504 H   0  0  0  0  0  0  0  0  0  0  0  0
   -1.1851   -5.9117   28.2700 H   0  0  0  0  0  0  0  0  0  0  0  0
   -6.9589   -5.6465   29.0070 H   0  0  0  0  0  0  0  0  0  0  0  0
   -3.6991   -2.2823   26.7369 H   0  0  0  0  0  0  0  0  0  0  0  0
   -3.6926   -1.1379   27.8754 H   0  0  0  0  0  0  0  0  0  0  0  0
  1  2  2  0
  2  3  1  0
  3  4  1  0
  4  5  1  0
  5  6  2  0
  6  7  1  0
  7  8  2  0
  8  9  1  0
  9 10  2  0
 10 11  1  0
 11 12  2  0
  6 13  1  0
 13 14  1  0
 14 15  2  0
 15 16  1  0
 16 17  2  0
 17 18  1  0
 18 19  2  0
  2 20  1  0
 20 21  1  0
 21 22  2  0
 22 23  1  0
 23 24  2  0
 24 25  1  0
 25 26  2  0
 25 27  1  0
 27 28  1  0
 28 29  1  0
 19  5  1  0
 26 21  1  0
 12  7  1  0
 19 14  1  0
 29 24  1  0
  3 30  1  0
  3 31  1  0
  8 32  1  0
  9 33  1  0
 10 34  1  0
 11 35  1  0
 12 36  1  0
 13 37  1  0
 15 38  1  0
 16 39  1  0
 17 40  1  0
 18 41  1  0
 20 42  1  0
 22 43  1  0
 23 44  1  0
 26 45  1  0
 28 46  1  0
 28 47  1  0
M  END
>  <Energy>  (257) 
3346.1242075041368

>  <compound_id>  (257) 
4990

>  <target_id>  (257) 
1

>  <reference_id>  (257) 
39

>  <inspiration_ids>  (257) 
[39, 13]

>  <energy_score>  (257) 
3250.4143802972735

>  <distance_score>  (257) 
5.479079388728473

>  <path>  (257) 
/opt/xchem-fragalysis-2/maxwin/BulkDock/SCRATCH/511018/C4990-P39/C4990-P39.minimised.mol

>  <scratch_subdir>  (257) 
/opt/xchem-fragalysis-2/maxwin/BulkDock/SCRATCH/511018/C4990-P39

>  <fragmenstein_runtime>  (257) 
30.71092939376831

>  <fragmenstein_outcome>  (257) 
too moved

>  <fragmenstein_mode>  (257) 
expansion

>  <fragmenstein_error>  (257) 


$$$$
C4990-P13
     RDKit          3D

 47 51  0  0  0  0  0  0  0  0999 V2000
   -8.5034   -9.6291   27.2039 O   0  0  0  0  0  0  0  0  0  0  0  0
   -7.6010   -9.7617   26.4478 C   0  0  0  0  0  0  0  0  0  0  0  0
   -7.3588  -12.0623   26.0633 C   0  0  0  0  0  0  0  0  0  0  0  0
   -8.5309  -14.6041   26.1224 S   0  0  0  0  0  0  0  0  0  0  0  0
   -9.5074  -17.0168   25.6961 C   0  0  0  0  0  0  0  0  0  0  0  0
   -9.6106  -18.5157   24.2600 C   0  0  0  0  0  0  0  0  0  0  0  0
  -10.6944  -20.0061   23.3344 C   0  0  0  0  0  0  0  0  0  0  0  0
  -11.4842  -20.0454   22.0627 C   0  0  0  0  0  0  0  0  0  0  0  0
  -11.4792  -21.1235   21.1787 C   0  0  0  0  0  0  0  0  0  0  0  0
  -10.3841  -21.8537   21.3481 C   0  0  0  0  0  0  0  0  0  0  0  0
   -9.8577  -21.8704   22.5780 C   0  0  0  0  0  0  0  0  0  0  0  0
  -10.7722  -21.4193   23.3694 C   0  0  0  0  0  0  0  0  0  0  0  0
  -10.4054  -20.2847   24.9459 N   0  0  0  0  0  0  0  0  0  0  0  0
  -10.0921  -20.3410   26.9585 C   0  0  0  0  0  0  0  0  0  0  0  0
  -11.0845  -21.4512   27.8793 C   0  0  0  0  0  0  0  0  0  0  0  0
  -12.0768  -21.0614   28.8862 C   0  0  0  0  0  0  0  0  0  0  0  0
  -12.4497  -19.5871   29.0748 C   0  0  0  0  0  0  0  0  0  0  0  0
  -11.4900  -18.0387   28.5774 C   0  0  0  0  0  0  0  0  0  0  0  0
   -9.8645  -18.2856   27.3933 C   0  0  0  0  0  0  0  0  0  0  0  0
   -6.8214   -7.8961   26.1188 N   0  0  0  0  0  0  0  0  0  0  0  0
   -7.4246   -6.0659   26.6893 C   0  0  0  0  0  0  0  0  0  0  0  0
   -8.7566   -5.2454   26.1464 C   0  0  0  0  0  0  0  0  0  0  0  0
   -9.3792   -4.0921   26.7109 C   0  0  0  0  0  0  0  0  0  0  0  0
   -8.9081   -3.5807   27.8996 C   0  0  0  0  0  0  0  0  0  0  0  0
   -7.8707   -4.1459   28.5961 C   0  0  0  0  0  0  0  0  0  0  0  0
   -7.1665   -5.2880   28.1363 C   0  0  0  0  0  0  0  0  0  0  0  0
   -7.6831   -3.5537   29.8106 O   0  0  0  0  0  0  0  0  0  0  0  0
   -8.7417   -2.5712   29.7975 C   0  0  0  0  0  0  0  0  0  0  0  0
   -9.4210   -2.4907   28.5336 O   0  0  0  0  0  0  0  0  0  0  0  0
   -6.6541  -12.4752   26.8049 H   0  0  0  0  0  0  0  0  0  0  0  0
   -6.6658  -12.0706   25.1966 H   0  0  0  0  0  0  0  0  0  0  0  0
  -11.6326  -19.1307   21.4576 H   0  0  0  0  0  0  0  0  0  0  0  0
  -11.9044  -21.1619   20.2189 H   0  0  0  0  0  0  0  0  0  0  0  0
   -9.9526  -22.2681   20.4910 H   0  0  0  0  0  0  0  0  0  0  0  0
   -9.0216  -22.3608   23.0266 H   0  0  0  0  0  0  0  0  0  0  0  0
  -11.7694  -21.8986   23.3721 H   0  0  0  0  0  0  0  0  0  0  0  0
  -11.4250  -20.3022   25.0413 H   0  0  0  0  0  0  0  0  0  0  0  0
  -11.1052  -22.4802   27.5128 H   0  0  0  0  0  0  0  0  0  0  0  0
  -12.6415  -21.8152   29.3958 H   0  0  0  0  0  0  0  0  0  0  0  0
  -13.3898  -19.4834   29.5698 H   0  0  0  0  0  0  0  0  0  0  0  0
  -12.1068  -17.1769   28.7339 H   0  0  0  0  0  0  0  0  0  0  0  0
   -6.1579   -7.9605   25.4341 H   0  0  0  0  0  0  0  0  0  0  0  0
   -9.0157   -5.3412   25.0833 H   0  0  0  0  0  0  0  0  0  0  0  0
  -10.1808   -3.5889   26.1779 H   0  0  0  0  0  0  0  0  0  0  0  0
   -6.4446   -5.6674   28.8500 H   0  0  0  0  0  0  0  0  0  0  0  0
   -8.3311   -1.5910   30.0520 H   0  0  0  0  0  0  0  0  0  0  0  0
   -9.4720   -2.8418   30.5703 H   0  0  0  0  0  0  0  0  0  0  0  0
  1  2  2  0
  2  3  1  0
  3  4  1  0
  4  5  1  0
  5  6  2  0
  6  7  1  0
  7  8  2  0
  8  9  1  0
  9 10  2  0
 10 11  1  0
 11 12  2  0
  6 13  1  0
 13 14  1  0
 14 15  2  0
 15 16  1  0
 16 17  2  0
 17 18  1  0
 18 19  2  0
  2 20  1  0
 20 21  1  0
 21 22  2  0
 22 23  1  0
 23 24  2  0
 24 25  1  0
 25 26  2  0
 25 27  1  0
 27 28  1  0
 28 29  1  0
 19  5  1  0
 26 21  1  0
 12  7  1  0
 19 14  1  0
 29 24  1  0
  3 30  1  0
  3 31  1  0
  8 32  1  0
  9 33  1  0
 10 34  1  0
 11 35  1  0
 12 36  1  0
 13 37  1  0
 15 38  1  0
 16 39  1  0
 17 40  1  0
 18 41  1  0
 20 42  1  0
 22 43  1  0
 23 44  1  0
 26 45  1  0
 28 46  1  0
 28 47  1  0
M  END
>  <Energy>  (258) 
3001.7464173583412

>  <compound_id>  (258) 
4990

>  <target_id>  (258) 
1

>  <reference_id>  (258) 
13

>  <inspiration_ids>  (258) 
[39, 13]

>  <energy_score>  (258) 
2906.0365901514688

>  <distance_score>  (258) 
7.71158507900257

>  <path>  (258) 
/opt/xchem-fragalysis-2/maxwin/BulkDock/SCRATCH/511018/C4990-P13/C4990-P13.minimised.mol

>  <scratch_subdir>  (258) 
/opt/xchem-fragalysis-2/maxwin/BulkDock/SCRATCH/511018/C4990-P13

>  <fragmenstein_runtime>  (258) 
38.36842346191406

>  <fragmenstein_outcome>  (258) 
too moved

>  <fragmenstein_mode>  (258) 
expansion

>  <fragmenstein_error>  (258) 


$$$$
C4991-P39
     RDKit          3D

 43 46  0  0  0  0  0  0  0  0999 V2000
  -11.1731  -23.9650   26.8011 C   0  0  0  0  0  0  0  0  0  0  0  0
  -10.2341  -23.2364   27.7693 C   0  0  0  0  0  0  0  0  0  0  0  0
  -10.4033  -21.7486   27.8776 N   0  0  0  0  0  0  0  0  0  0  0  0
   -9.4677  -20.6894   27.6035 C   0  0  0  0  0  0  0  0  0  0  0  0
   -8.9626  -18.9282   28.1452 C   0  0  0  0  0  0  0  0  0  0  0  0
   -8.3658  -16.5641   27.3225 S   0  0  0  0  0  0  0  0  0  0  0  0
   -7.5180  -14.0403   26.9152 C   0  0  0  0  0  0  0  0  0  0  0  0
   -6.2764  -12.1010   26.8555 C   0  0  0  0  0  0  0  0  0  0  0  0
   -5.1367  -12.3500   27.0257 O   0  0  0  0  0  0  0  0  0  0  0  0
   -6.5120  -10.0497   26.8512 N   0  0  0  0  0  0  0  0  0  0  0  0
   -5.2570   -8.4996   27.2527 C   0  0  0  0  0  0  0  0  0  0  0  0
   -4.9593   -7.9676   28.5576 C   0  0  0  0  0  0  0  0  0  0  0  0
   -3.3388   -7.3183   29.2061 C   0  0  0  0  0  0  0  0  0  0  0  0
   -2.0894   -6.9251   28.6295 C   0  0  0  0  0  0  0  0  0  0  0  0
   -2.2714   -6.8847   27.3503 C   0  0  0  0  0  0  0  0  0  0  0  0
   -3.5976   -7.6772   26.9494 C   0  0  0  0  0  0  0  0  0  0  0  0
   -1.2224   -6.3563   26.6937 O   0  0  0  0  0  0  0  0  0  0  0  0
   -0.5770   -5.7464   27.8510 C   0  0  0  0  0  0  0  0  0  0  0  0
   -0.9320   -6.4386   29.0708 O   0  0  0  0  0  0  0  0  0  0  0  0
  -10.2187  -20.3370   29.2221 C   0  0  0  0  0  0  0  0  0  0  0  0
  -10.5735  -20.7694   30.8188 C   0  0  0  0  0  0  0  0  0  0  0  0
  -11.4901  -21.6604   31.4558 C   0  0  0  0  0  0  0  0  0  0  0  0
  -12.3835  -22.3120   30.6884 C   0  0  0  0  0  0  0  0  0  0  0  0
  -12.2682  -22.0892   29.3407 C   0  0  0  0  0  0  0  0  0  0  0  0
  -11.2351  -21.2771   28.7579 C   0  0  0  0  0  0  0  0  0  0  0  0
  -11.2260  -25.0249   27.0728 H   0  0  0  0  0  0  0  0  0  0  0  0
  -12.1870  -23.5606   26.8066 H   0  0  0  0  0  0  0  0  0  0  0  0
  -10.8212  -23.9326   25.7684 H   0  0  0  0  0  0  0  0  0  0  0  0
  -10.4035  -23.6686   28.7594 H   0  0  0  0  0  0  0  0  0  0  0  0
   -9.1859  -23.4315   27.5503 H   0  0  0  0  0  0  0  0  0  0  0  0
   -8.6017  -21.2896   27.3136 H   0  0  0  0  0  0  0  0  0  0  0  0
   -7.4667  -14.3691   25.8892 H   0  0  0  0  0  0  0  0  0  0  0  0
   -8.4844  -13.6974   27.2762 H   0  0  0  0  0  0  0  0  0  0  0  0
   -7.4997   -9.8512   26.7937 H   0  0  0  0  0  0  0  0  0  0  0  0
   -5.6767   -8.3326   29.2653 H   0  0  0  0  0  0  0  0  0  0  0  0
   -3.1542   -7.4241   30.3097 H   0  0  0  0  0  0  0  0  0  0  0  0
   -2.9491   -8.1579   26.1341 H   0  0  0  0  0  0  0  0  0  0  0  0
   -0.8574   -4.6895   27.9422 H   0  0  0  0  0  0  0  0  0  0  0  0
    0.4908   -5.7558   27.7431 H   0  0  0  0  0  0  0  0  0  0  0  0
  -10.0679  -20.2919   31.6675 H   0  0  0  0  0  0  0  0  0  0  0  0
  -11.5114  -21.7641   32.5354 H   0  0  0  0  0  0  0  0  0  0  0  0
  -13.1091  -23.0058   31.1012 H   0  0  0  0  0  0  0  0  0  0  0  0
  -12.8070  -22.7856   28.7005 H   0  0  0  0  0  0  0  0  0  0  0  0
  1  2  1  0
  2  3  1  0
  3  4  1  0
  4  5  2  0
  5  6  1  0
  6  7  1  0
  7  8  1  0
  8  9  2  0
  8 10  1  0
 10 11  1  0
 11 12  2  0
 12 13  1  0
 13 14  2  0
 14 15  1  0
 15 16  2  0
 15 17  1  0
 17 18  1  0
 18 19  1  0
  5 20  1  0
 20 21  2  0
 21 22  1  0
 22 23  2  0
 23 24  1  0
 24 25  2  0
 25  3  1  0
 16 11  1  0
 25 20  1  0
 19 14  1  0
  1 26  1  0
  1 27  1  0
  1 28  1  0
  2 29  1  0
  2 30  1  0
  4 31  1  0
  7 32  1  0
  7 33  1  0
 10 34  1  0
 12 35  1  0
 13 36  1  0
 16 37  1  0
 18 38  1  0
 18 39  1  0
 21 40  1  0
 22 41  1  0
 23 42  1  0
 24 43  1  0
M  END
>  <Energy>  (259) 
2072.9334147458922

>  <compound_id>  (259) 
4991

>  <target_id>  (259) 
1

>  <reference_id>  (259) 
39

>  <inspiration_ids>  (259) 
[39, 13]

>  <energy_score>  (259) 
1978.6677843115435

>  <distance_score>  (259) 
6.602853282494178

>  <path>  (259) 
/opt/xchem-fragalysis-2/maxwin/BulkDock/SCRATCH/511018/C4991-P39/C4991-P39.minimised.mol

>  <scratch_subdir>  (259) 
/opt/xchem-fragalysis-2/maxwin/BulkDock/SCRATCH/511018/C4991-P39

>  <fragmenstein_runtime>  (259) 
18.672189712524414

>  <fragmenstein_outcome>  (259) 
too moved

>  <fragmenstein_mode>  (259) 
expansion

>  <fragmenstein_error>  (259) 


$$$$
C4991-P13
     RDKit          3D

 43 46  0  0  0  0  0  0  0  0999 V2000
  -11.1194  -22.3148   28.3352 C   0  0  0  0  0  0  0  0  0  0  0  0
  -11.2216  -21.5190   29.6129 C   0  0  0  0  0  0  0  0  0  0  0  0
  -10.0583  -20.8095   30.2023 N   0  0  0  0  0  0  0  0  0  0  0  0
   -8.5138  -19.6731   29.2427 C   0  0  0  0  0  0  0  0  0  0  0  0
   -7.2982  -18.7874   30.4964 C   0  0  0  0  0  0  0  0  0  0  0  0
   -5.9102  -16.6936   29.9885 S   0  0  0  0  0  0  0  0  0  0  0  0
   -6.2638  -14.1800   29.8586 C   0  0  0  0  0  0  0  0  0  0  0  0
   -5.4191  -12.2154   29.5923 C   0  0  0  0  0  0  0  0  0  0  0  0
   -4.2812  -12.1996   29.1500 O   0  0  0  0  0  0  0  0  0  0  0  0
   -6.3221  -10.5629   30.1862 N   0  0  0  0  0  0  0  0  0  0  0  0
   -5.6453   -8.6847   30.3588 C   0  0  0  0  0  0  0  0  0  0  0  0
   -4.5449   -8.5422   31.7996 C   0  0  0  0  0  0  0  0  0  0  0  0
   -3.1690   -8.0498   32.1107 C   0  0  0  0  0  0  0  0  0  0  0  0
   -2.4206   -7.5350   31.0913 C   0  0  0  0  0  0  0  0  0  0  0  0
   -2.9735   -7.4299   29.7104 C   0  0  0  0  0  0  0  0  0  0  0  0
   -4.6143   -7.8833   29.1236 C   0  0  0  0  0  0  0  0  0  0  0  0
   -1.8607   -7.1628   28.9510 O   0  0  0  0  0  0  0  0  0  0  0  0
   -0.7867   -6.9336   29.9270 C   0  0  0  0  0  0  0  0  0  0  0  0
   -1.1831   -7.0514   31.2746 O   0  0  0  0  0  0  0  0  0  0  0  0
   -7.2765  -20.4761   31.8186 C   0  0  0  0  0  0  0  0  0  0  0  0
   -6.6715  -20.5449   33.2530 C   0  0  0  0  0  0  0  0  0  0  0  0
   -6.9988  -21.5382   34.2804 C   0  0  0  0  0  0  0  0  0  0  0  0
   -7.9432  -22.6921   34.1555 C   0  0  0  0  0  0  0  0  0  0  0  0
   -9.1591  -23.0708   32.8885 C   0  0  0  0  0  0  0  0  0  0  0  0
   -9.0993  -21.5316   31.9152 C   0  0  0  0  0  0  0  0  0  0  0  0
  -11.2458  -21.6814   27.4643 H   0  0  0  0  0  0  0  0  0  0  0  0
  -10.2037  -22.9003   28.2728 H   0  0  0  0  0  0  0  0  0  0  0  0
  -11.9354  -23.0274   28.2514 H   0  0  0  0  0  0  0  0  0  0  0  0
  -12.0725  -20.8417   29.5824 H   0  0  0  0  0  0  0  0  0  0  0  0
  -11.4373  -22.2173   30.3950 H   0  0  0  0  0  0  0  0  0  0  0  0
   -8.8627  -19.1405   28.3473 H   0  0  0  0  0  0  0  0  0  0  0  0
   -6.9512  -14.1586   29.0012 H   0  0  0  0  0  0  0  0  0  0  0  0
   -6.6813  -14.0910   30.8669 H   0  0  0  0  0  0  0  0  0  0  0  0
   -7.1989  -10.7894   30.5868 H   0  0  0  0  0  0  0  0  0  0  0  0
   -4.9561   -8.6997   32.8243 H   0  0  0  0  0  0  0  0  0  0  0  0
   -2.8011   -8.0799   33.1314 H   0  0  0  0  0  0  0  0  0  0  0  0
   -4.8822   -8.0399   28.0799 H   0  0  0  0  0  0  0  0  0  0  0  0
   -0.3658   -5.9320   29.7827 H   0  0  0  0  0  0  0  0  0  0  0  0
   -0.0098   -7.6925   29.7775 H   0  0  0  0  0  0  0  0  0  0  0  0
   -5.9462  -19.7757   33.5051 H   0  0  0  0  0  0  0  0  0  0  0  0
   -6.3799  -21.5227   35.1825 H   0  0  0  0  0  0  0  0  0  0  0  0
   -7.5279  -23.5003   34.7461 H   0  0  0  0  0  0  0  0  0  0  0  0
   -9.7591  -23.9292   32.6299 H   0  0  0  0  0  0  0  0  0  0  0  0
  1  2  1  0
  2  3  1  0
  3  4  1  0
  4  5  2  0
  5  6  1  0
  6  7  1  0
  7  8  1  0
  8  9  2  0
  8 10  1  0
 10 11  1  0
 11 12  2  0
 12 13  1  0
 13 14  2  0
 14 15  1  0
 15 16  2  0
 15 17  1  0
 17 18  1  0
 18 19  1  0
  5 20  1  0
 20 21  2  0
 21 22  1  0
 22 23  2  0
 23 24  1  0
 24 25  2  0
 25  3  1  0
 16 11  1  0
 25 20  1  0
 19 14  1  0
  1 26  1  0
  1 27  1  0
  1 28  1  0
  2 29  1  0
  2 30  1  0
  4 31  1  0
  7 32  1  0
  7 33  1  0
 10 34  1  0
 12 35  1  0
 13 36  1  0
 16 37  1  0
 18 38  1  0
 18 39  1  0
 21 40  1  0
 22 41  1  0
 23 42  1  0
 24 43  1  0
M  END
>  <Energy>  (260) 
1974.0584452714791

>  <compound_id>  (260) 
4991

>  <target_id>  (260) 
1

>  <reference_id>  (260) 
13

>  <inspiration_ids>  (260) 
[39, 13]

>  <energy_score>  (260) 
1879.7928148371352

>  <distance_score>  (260) 
8.018967152390678

>  <path>  (260) 
/opt/xchem-fragalysis-2/maxwin/BulkDock/SCRATCH/511018/C4991-P13/C4991-P13.minimised.mol

>  <scratch_subdir>  (260) 
/opt/xchem-fragalysis-2/maxwin/BulkDock/SCRATCH/511018/C4991-P13

>  <fragmenstein_runtime>  (260) 
17.540374040603638

>  <fragmenstein_outcome>  (260) 
too moved

>  <fragmenstein_mode>  (260) 
expansion

>  <fragmenstein_error>  (260) 


$$$$
C4992-P39
     RDKit          3D

 46 49  0  0  0  0  0  0  0  0999 V2000
  -11.5683  -24.0293   26.0768 C   0  0  0  0  0  0  0  0  0  0  0  0
  -10.8235  -24.3289   27.3579 C   0  0  0  0  0  0  0  0  0  0  0  0
   -9.7388  -23.3248   27.8055 C   0  0  0  0  0  0  0  0  0  0  0  0
   -9.9974  -21.9131   28.1349 N   0  0  0  0  0  0  0  0  0  0  0  0
   -9.5596  -20.6035   27.6042 C   0  0  0  0  0  0  0  0  0  0  0  0
   -8.9839  -18.8263   28.1024 C   0  0  0  0  0  0  0  0  0  0  0  0
   -8.4845  -16.4204   27.2168 S   0  0  0  0  0  0  0  0  0  0  0  0
   -7.6962  -13.8146   27.0556 C   0  0  0  0  0  0  0  0  0  0  0  0
   -6.7436  -11.7872   26.3701 C   0  0  0  0  0  0  0  0  0  0  0  0
   -6.3156  -11.8693   25.2202 O   0  0  0  0  0  0  0  0  0  0  0  0
   -6.3158   -9.9801   27.4341 N   0  0  0  0  0  0  0  0  0  0  0  0
   -5.2394   -8.3924   27.1210 C   0  0  0  0  0  0  0  0  0  0  0  0
   -4.8994   -7.9191   28.4944 C   0  0  0  0  0  0  0  0  0  0  0  0
   -3.2962   -7.3000   29.1842 C   0  0  0  0  0  0  0  0  0  0  0  0
   -2.0614   -6.9166   28.6159 C   0  0  0  0  0  0  0  0  0  0  0  0
   -2.2179   -6.8963   27.3330 C   0  0  0  0  0  0  0  0  0  0  0  0
   -3.5341   -7.6413   26.9144 C   0  0  0  0  0  0  0  0  0  0  0  0
   -1.1165   -6.5463   26.6575 O   0  0  0  0  0  0  0  0  0  0  0  0
   -0.2342   -6.3949   27.7985 C   0  0  0  0  0  0  0  0  0  0  0  0
   -0.8834   -6.5370   29.0781 O   0  0  0  0  0  0  0  0  0  0  0  0
  -10.1806  -20.3248   29.1608 C   0  0  0  0  0  0  0  0  0  0  0  0
  -10.6037  -20.7620   30.7425 C   0  0  0  0  0  0  0  0  0  0  0  0
  -11.5093  -21.6988   31.3316 C   0  0  0  0  0  0  0  0  0  0  0  0
  -12.3392  -22.3909   30.5203 C   0  0  0  0  0  0  0  0  0  0  0  0
  -12.1696  -22.1907   29.1731 C   0  0  0  0  0  0  0  0  0  0  0  0
  -11.0980  -21.4053   28.6654 C   0  0  0  0  0  0  0  0  0  0  0  0
  -10.9171  -24.1520   25.2086 H   0  0  0  0  0  0  0  0  0  0  0  0
  -12.4022  -24.7286   25.9556 H   0  0  0  0  0  0  0  0  0  0  0  0
  -11.9740  -23.0197   26.0742 H   0  0  0  0  0  0  0  0  0  0  0  0
  -10.3368  -25.3048   27.2336 H   0  0  0  0  0  0  0  0  0  0  0  0
  -11.5371  -24.5056   28.1669 H   0  0  0  0  0  0  0  0  0  0  0  0
   -9.3600  -23.8108   28.6958 H   0  0  0  0  0  0  0  0  0  0  0  0
   -8.8840  -23.3374   27.1390 H   0  0  0  0  0  0  0  0  0  0  0  0
  -10.2068  -20.7447   26.7695 H   0  0  0  0  0  0  0  0  0  0  0  0
   -8.7436  -13.5714   27.2169 H   0  0  0  0  0  0  0  0  0  0  0  0
   -7.4464  -14.2546   26.0927 H   0  0  0  0  0  0  0  0  0  0  0  0
   -6.8223   -9.9918   28.3809 H   0  0  0  0  0  0  0  0  0  0  0  0
   -5.6704   -8.2019   29.2245 H   0  0  0  0  0  0  0  0  0  0  0  0
   -3.1360   -7.4054   30.2863 H   0  0  0  0  0  0  0  0  0  0  0  0
   -2.8954   -8.1508   26.1095 H   0  0  0  0  0  0  0  0  0  0  0  0
    0.4537   -7.2411   27.7523 H   0  0  0  0  0  0  0  0  0  0  0  0
    0.2632   -5.4215   27.7538 H   0  0  0  0  0  0  0  0  0  0  0  0
  -10.1460  -20.2697   31.6095 H   0  0  0  0  0  0  0  0  0  0  0  0
  -11.5773  -21.7987   32.4109 H   0  0  0  0  0  0  0  0  0  0  0  0
  -13.0757  -23.0879   30.9091 H   0  0  0  0  0  0  0  0  0  0  0  0
  -12.7126  -22.8406   28.4936 H   0  0  0  0  0  0  0  0  0  0  0  0
  1  2  1  0
  2  3  1  0
  3  4  1  0
  4  5  1  0
  5  6  2  0
  6  7  1  0
  7  8  1  0
  8  9  1  0
  9 10  2  0
  9 11  1  0
 11 12  1  0
 12 13  2  0
 13 14  1  0
 14 15  2  0
 15 16  1  0
 16 17  2  0
 16 18  1  0
 18 19  1  0
 19 20  1  0
  6 21  1  0
 21 22  2  0
 22 23  1  0
 23 24  2  0
 24 25  1  0
 25 26  2  0
 26  4  1  0
 17 12  1  0
 26 21  1  0
 20 15  1  0
  1 27  1  0
  1 28  1  0
  1 29  1  0
  2 30  1  0
  2 31  1  0
  3 32  1  0
  3 33  1  0
  5 34  1  0
  8 35  1  0
  8 36  1  0
 11 37  1  0
 13 38  1  0
 14 39  1  0
 17 40  1  0
 19 41  1  0
 19 42  1  0
 22 43  1  0
 23 44  1  0
 24 45  1  0
 25 46  1  0
M  END
>  <Energy>  (261) 
2243.3529953471548

>  <compound_id>  (261) 
4992

>  <target_id>  (261) 
1

>  <reference_id>  (261) 
39

>  <inspiration_ids>  (261) 
[39, 13]

>  <energy_score>  (261) 
2156.1653406192436

>  <distance_score>  (261) 
6.653795229130676

>  <path>  (261) 
/opt/xchem-fragalysis-2/maxwin/BulkDock/SCRATCH/511018/C4992-P39/C4992-P39.minimised.mol

>  <scratch_subdir>  (261) 
/opt/xchem-fragalysis-2/maxwin/BulkDock/SCRATCH/511018/C4992-P39

>  <fragmenstein_runtime>  (261) 
17.617627143859863

>  <fragmenstein_outcome>  (261) 
too moved

>  <fragmenstein_mode>  (261) 
expansion

>  <fragmenstein_error>  (261) 


$$$$
C4992-P13
     RDKit          3D

 46 49  0  0  0  0  0  0  0  0999 V2000
  -11.3376  -23.0852   27.3267 C   0  0  0  0  0  0  0  0  0  0  0  0
  -10.2122  -22.4684   28.2351 C   0  0  0  0  0  0  0  0  0  0  0  0
   -9.7210  -20.6982   27.7051 C   0  0  0  0  0  0  0  0  0  0  0  0
   -9.5831  -18.7135   28.0138 N   0  0  0  0  0  0  0  0  0  0  0  0
   -8.4411  -17.3700   27.9157 C   0  0  0  0  0  0  0  0  0  0  0  0
   -9.1574  -16.3704   27.3127 C   0  0  0  0  0  0  0  0  0  0  0  0
   -8.1607  -13.9584   27.1406 S   0  0  0  0  0  0  0  0  0  0  0  0
   -7.2526  -11.5487   26.1700 C   0  0  0  0  0  0  0  0  0  0  0  0
   -6.3599   -9.6763   27.3086 C   0  0  0  0  0  0  0  0  0  0  0  0
   -6.9182   -9.5636   28.4034 O   0  0  0  0  0  0  0  0  0  0  0  0
   -4.7400   -8.4575   27.2430 N   0  0  0  0  0  0  0  0  0  0  0  0
   -3.8189   -7.4450   28.5321 C   0  0  0  0  0  0  0  0  0  0  0  0
   -2.4846   -7.4462   29.6649 C   0  0  0  0  0  0  0  0  0  0  0  0
   -1.2916   -6.6651   30.5032 C   0  0  0  0  0  0  0  0  0  0  0  0
   -0.8544   -5.4892   29.9645 C   0  0  0  0  0  0  0  0  0  0  0  0
   -1.4313   -5.3584   28.6857 C   0  0  0  0  0  0  0  0  0  0  0  0
   -2.4876   -6.6608   27.9531 C   0  0  0  0  0  0  0  0  0  0  0  0
   -0.8864   -4.2157   28.1051 O   0  0  0  0  0  0  0  0  0  0  0  0
   -0.2266   -3.5923   29.2227 C   0  0  0  0  0  0  0  0  0  0  0  0
   -0.0215   -4.5163   30.3190 O   0  0  0  0  0  0  0  0  0  0  0  0
   -9.5969  -18.3432   28.2472 C   0  0  0  0  0  0  0  0  0  0  0  0
  -10.5325  -19.9344   29.3821 C   0  0  0  0  0  0  0  0  0  0  0  0
  -11.5462  -20.8910   30.0046 C   0  0  0  0  0  0  0  0  0  0  0  0
  -12.6525  -20.7442   29.4100 C   0  0  0  0  0  0  0  0  0  0  0  0
  -12.6079  -19.3917   29.1155 C   0  0  0  0  0  0  0  0  0  0  0  0
  -11.3212  -18.0915   28.7962 C   0  0  0  0  0  0  0  0  0  0  0  0
  -10.9328  -23.8776   26.6893 H   0  0  0  0  0  0  0  0  0  0  0  0
  -12.1023  -23.5240   27.9484 H   0  0  0  0  0  0  0  0  0  0  0  0
  -11.8737  -22.3602   26.7085 H   0  0  0  0  0  0  0  0  0  0  0  0
   -9.3250  -23.1011   28.0746 H   0  0  0  0  0  0  0  0  0  0  0  0
  -10.5624  -22.6339   29.2261 H   0  0  0  0  0  0  0  0  0  0  0  0
  -10.1966  -20.6218   26.7530 H   0  0  0  0  0  0  0  0  0  0  0  0
  -10.8369  -20.9971   27.7151 H   0  0  0  0  0  0  0  0  0  0  0  0
   -7.4564  -17.2329   28.2666 H   0  0  0  0  0  0  0  0  0  0  0  0
   -8.1634  -11.1175   25.7644 H   0  0  0  0  0  0  0  0  0  0  0  0
   -6.5135  -11.9010   25.4640 H   0  0  0  0  0  0  0  0  0  0  0  0
   -4.2959   -8.6177   26.4497 H   0  0  0  0  0  0  0  0  0  0  0  0
   -1.6315   -8.1331   29.2407 H   0  0  0  0  0  0  0  0  0  0  0  0
   -0.8410   -7.1573   31.3572 H   0  0  0  0  0  0  0  0  0  0  0  0
   -2.4882   -6.7385   26.8529 H   0  0  0  0  0  0  0  0  0  0  0  0
    0.7508   -3.2264   28.8910 H   0  0  0  0  0  0  0  0  0  0  0  0
   -0.8264   -2.7429   29.5725 H   0  0  0  0  0  0  0  0  0  0  0  0
  -10.1278  -20.7997   29.7975 H   0  0  0  0  0  0  0  0  0  0  0  0
  -11.3551  -21.6851   30.7058 H   0  0  0  0  0  0  0  0  0  0  0  0
  -13.4065  -21.3930   29.7631 H   0  0  0  0  0  0  0  0  0  0  0  0
  -13.5053  -19.0719   29.5615 H   0  0  0  0  0  0  0  0  0  0  0  0
  1  2  1  0
  2  3  1  0
  3  4  1  0
  4  5  1  0
  5  6  2  0
  6  7  1  0
  7  8  1  0
  8  9  1  0
  9 10  2  0
  9 11  1  0
 11 12  1  0
 12 13  2  0
 13 14  1  0
 14 15  2  0
 15 16  1  0
 16 17  2  0
 16 18  1  0
 18 19  1  0
 19 20  1  0
  6 21  1  0
 21 22  2  0
 22 23  1  0
 23 24  2  0
 24 25  1  0
 25 26  2  0
 26  4  1  0
 17 12  1  0
 26 21  1  0
 20 15  1  0
  1 27  1  0
  1 28  1  0
  1 29  1  0
  2 30  1  0
  2 31  1  0
  3 32  1  0
  3 33  1  0
  5 34  1  0
  8 35  1  0
  8 36  1  0
 11 37  1  0
 13 38  1  0
 14 39  1  0
 17 40  1  0
 19 41  1  0
 19 42  1  0
 22 43  1  0
 23 44  1  0
 24 45  1  0
 25 46  1  0
M  END
>  <Energy>  (262) 
3173.1287028522174

>  <compound_id>  (262) 
4992

>  <target_id>  (262) 
1

>  <reference_id>  (262) 
13

>  <inspiration_ids>  (262) 
[39, 13]

>  <energy_score>  (262) 
3085.9410481243062

>  <distance_score>  (262) 
6.503771968669221

>  <path>  (262) 
/opt/xchem-fragalysis-2/maxwin/BulkDock/SCRATCH/511018/C4992-P13/C4992-P13.minimised.mol

>  <scratch_subdir>  (262) 
/opt/xchem-fragalysis-2/maxwin/BulkDock/SCRATCH/511018/C4992-P13

>  <fragmenstein_runtime>  (262) 
22.93080234527588

>  <fragmenstein_outcome>  (262) 
too moved

>  <fragmenstein_mode>  (262) 
expansion

>  <fragmenstein_error>  (262) 


$$$$
C4993-P39
     RDKit          3D

 53 57  0  0  0  0  0  0  0  0999 V2000
   -3.8935  -15.8100   29.3222 C   0  0  0  0  0  0  0  0  0  0  0  0
   -5.7486  -15.6488   29.4909 C   0  0  0  0  0  0  0  0  0  0  0  0
   -7.0500  -14.6624   28.4120 C   0  0  0  0  0  0  0  0  0  0  0  0
   -5.9256  -14.7678   30.7578 C   0  0  0  0  0  0  0  0  0  0  0  0
   -5.9948  -16.0737   32.3525 C   0  0  0  0  0  0  0  0  0  0  0  0
   -5.0868  -16.8214   32.5501 O   0  0  0  0  0  0  0  0  0  0  0  0
   -7.3478  -15.8863   33.1764 N   0  0  0  0  0  0  0  0  0  0  0  0
   -7.8768  -16.6194   34.3018 C   0  0  0  0  0  0  0  0  0  0  0  0
   -7.4494  -16.5555   35.6170 C   0  0  0  0  0  0  0  0  0  0  0  0
   -8.2553  -16.8352   36.7561 C   0  0  0  0  0  0  0  0  0  0  0  0
   -9.6217  -17.0365   36.5620 C   0  0  0  0  0  0  0  0  0  0  0  0
  -10.6564  -17.2566   37.4408 N   0  0  0  0  0  0  0  0  0  0  0  0
  -11.8385  -17.3961   36.7658 C   0  0  0  0  0  0  0  0  0  0  0  0
  -11.5759  -17.1855   35.4361 C   0  0  0  0  0  0  0  0  0  0  0  0
  -10.1715  -17.0044   35.2967 C   0  0  0  0  0  0  0  0  0  0  0  0
   -9.2709  -16.7618   34.2341 C   0  0  0  0  0  0  0  0  0  0  0  0
   -4.8353  -13.3369   30.1193 N   0  0  0  0  0  0  0  0  0  0  0  0
   -5.2144  -12.2240   29.5981 C   0  0  0  0  0  0  0  0  0  0  0  0
   -5.7224  -12.0053   28.5681 O   0  0  0  0  0  0  0  0  0  0  0  0
   -4.9358  -11.6632   30.9921 C   0  0  0  0  0  0  0  0  0  0  0  0
   -3.4098  -12.1313   30.2471 C   0  0  0  0  0  0  0  0  0  0  0  0
   -2.2582  -10.5815   30.8147 C   0  0  0  0  0  0  0  0  0  0  0  0
   -1.1373  -10.0953   29.9063 C   0  0  0  0  0  0  0  0  0  0  0  0
   -0.6011   -8.7414   29.8881 C   0  0  0  0  0  0  0  0  0  0  0  0
   -0.9087   -7.8670   30.9033 C   0  0  0  0  0  0  0  0  0  0  0  0
   -1.7733   -8.2713   31.8960 C   0  0  0  0  0  0  0  0  0  0  0  0
   -2.4837   -9.5279   31.8599 C   0  0  0  0  0  0  0  0  0  0  0  0
   -1.9378   -7.2662   32.8073 O   0  0  0  0  0  0  0  0  0  0  0  0
   -1.0040   -6.2705   32.3182 C   0  0  0  0  0  0  0  0  0  0  0  0
   -0.5352   -6.5664   30.9952 O   0  0  0  0  0  0  0  0  0  0  0  0
   -3.3580  -16.1099   30.1985 H   0  0  0  0  0  0  0  0  0  0  0  0
   -3.2792  -14.8849   29.2199 H   0  0  0  0  0  0  0  0  0  0  0  0
   -3.6842  -16.2911   28.3740 H   0  0  0  0  0  0  0  0  0  0  0  0
   -5.8437  -16.7174   29.4114 H   0  0  0  0  0  0  0  0  0  0  0  0
   -7.0936  -14.1774   27.4051 H   0  0  0  0  0  0  0  0  0  0  0  0
   -7.8628  -15.3730   28.1997 H   0  0  0  0  0  0  0  0  0  0  0  0
   -7.4760  -13.8823   28.9884 H   0  0  0  0  0  0  0  0  0  0  0  0
   -6.8281  -14.1711   30.9120 H   0  0  0  0  0  0  0  0  0  0  0  0
   -7.9486  -15.2230   32.6950 H   0  0  0  0  0  0  0  0  0  0  0  0
   -6.5864  -15.9686   35.8731 H   0  0  0  0  0  0  0  0  0  0  0  0
   -7.8346  -16.7508   37.7534 H   0  0  0  0  0  0  0  0  0  0  0  0
  -10.5494  -17.3405   38.4415 H   0  0  0  0  0  0  0  0  0  0  0  0
  -12.7610  -17.6008   37.2907 H   0  0  0  0  0  0  0  0  0  0  0  0
  -12.3212  -17.1904   34.6553 H   0  0  0  0  0  0  0  0  0  0  0  0
   -9.7219  -16.3770   33.3360 H   0  0  0  0  0  0  0  0  0  0  0  0
   -5.7919  -12.1053   31.5111 H   0  0  0  0  0  0  0  0  0  0  0  0
   -4.9886  -10.8171   31.6679 H   0  0  0  0  0  0  0  0  0  0  0  0
   -3.1810  -12.0374   29.1844 H   0  0  0  0  0  0  0  0  0  0  0  0
   -0.9412  -10.5674   28.9566 H   0  0  0  0  0  0  0  0  0  0  0  0
   -0.1078   -8.3972   28.9865 H   0  0  0  0  0  0  0  0  0  0  0  0
   -3.3195   -9.5759   32.5434 H   0  0  0  0  0  0  0  0  0  0  0  0
   -0.1521   -6.2167   33.0068 H   0  0  0  0  0  0  0  0  0  0  0  0
   -1.4972   -5.2942   32.3078 H   0  0  0  0  0  0  0  0  0  0  0  0
  1  2  1  0
  2  3  1  0
  2  4  1  0
  4  5  1  0
  5  6  2  0
  5  7  1  0
  7  8  1  0
  8  9  2  0
  9 10  1  0
 10 11  2  0
 11 12  1  0
 12 13  1  0
 13 14  2  0
 14 15  1  0
 15 16  2  0
  4 17  1  0
 17 18  1  0
 18 19  2  0
 18 20  1  0
 20 21  1  0
 21 22  1  0
 22 23  2  0
 23 24  1  0
 24 25  2  0
 25 26  1  0
 26 27  2  0
 26 28  1  0
 28 29  1  0
 29 30  1  0
 16  8  1  0
 21 17  1  0
 27 22  1  0
 15 11  1  0
 30 25  1  0
  1 31  1  0
  1 32  1  0
  1 33  1  0
  2 34  1  0
  3 35  1  0
  3 36  1  0
  3 37  1  0
  4 38  1  0
  7 39  1  0
  9 40  1  0
 10 41  1  0
 12 42  1  0
 13 43  1  0
 14 44  1  0
 16 45  1  0
 20 46  1  0
 20 47  1  0
 21 48  1  0
 23 49  1  0
 24 50  1  0
 27 51  1  0
 29 52  1  0
 29 53  1  0
M  END
>  <Energy>  (263) 
606.90120520670803

>  <compound_id>  (263) 
4993

>  <target_id>  (263) 
1

>  <reference_id>  (263) 
39

>  <inspiration_ids>  (263) 
[39, 13]

>  <energy_score>  (263) 
470.27106112559477

>  <distance_score>  (263) 
10.218867665120424

>  <path>  (263) 
/opt/xchem-fragalysis-2/maxwin/BulkDock/SCRATCH/511018/C4993-P39/C4993-P39.minimised.mol

>  <scratch_subdir>  (263) 
/opt/xchem-fragalysis-2/maxwin/BulkDock/SCRATCH/511018/C4993-P39

>  <fragmenstein_runtime>  (263) 
49.32986116409302

>  <fragmenstein_outcome>  (263) 
too moved

>  <fragmenstein_mode>  (263) 
expansion

>  <fragmenstein_error>  (263) 


$$$$
C4993-P13
     RDKit          3D

 53 57  0  0  0  0  0  0  0  0999 V2000
   -4.5805  -15.2386   31.5485 C   0  0  0  0  0  0  0  0  0  0  0  0
   -6.3041  -14.8267   31.4207 C   0  0  0  0  0  0  0  0  0  0  0  0
   -5.8953  -15.7373   30.0571 C   0  0  0  0  0  0  0  0  0  0  0  0
   -8.1551  -15.1152   32.3152 C   0  0  0  0  0  0  0  0  0  0  0  0
   -8.0051  -17.1393   32.8073 C   0  0  0  0  0  0  0  0  0  0  0  0
   -6.9695  -17.6232   32.4062 O   0  0  0  0  0  0  0  0  0  0  0  0
   -9.3750  -18.1072   33.5554 N   0  0  0  0  0  0  0  0  0  0  0  0
   -9.6107  -19.9064   33.7087 C   0  0  0  0  0  0  0  0  0  0  0  0
  -10.5431  -19.5408   32.6469 C   0  0  0  0  0  0  0  0  0  0  0  0
  -11.0810  -20.3418   31.0994 C   0  0  0  0  0  0  0  0  0  0  0  0
  -12.1098  -21.0088   30.6776 C   0  0  0  0  0  0  0  0  0  0  0  0
  -12.6677  -21.3518   29.4832 N   0  0  0  0  0  0  0  0  0  0  0  0
  -11.7982  -21.8786   28.6007 C   0  0  0  0  0  0  0  0  0  0  0  0
  -10.9194  -22.4330   29.4707 C   0  0  0  0  0  0  0  0  0  0  0  0
  -11.1017  -21.8709   31.0767 C   0  0  0  0  0  0  0  0  0  0  0  0
   -9.9283  -21.3684   32.4948 C   0  0  0  0  0  0  0  0  0  0  0  0
   -9.5899  -14.0915   32.8884 N   0  0  0  0  0  0  0  0  0  0  0  0
  -10.9476  -14.2806   32.6215 C   0  0  0  0  0  0  0  0  0  0  0  0
  -11.6103  -14.9167   31.8259 O   0  0  0  0  0  0  0  0  0  0  0  0
  -11.5114  -13.1676   33.4456 C   0  0  0  0  0  0  0  0  0  0  0  0
  -10.1545  -12.4710   33.4000 C   0  0  0  0  0  0  0  0  0  0  0  0
  -10.2059  -10.7430   32.8724 C   0  0  0  0  0  0  0  0  0  0  0  0
  -10.9598  -10.2166   31.7859 C   0  0  0  0  0  0  0  0  0  0  0  0
  -10.9349   -8.8657   31.3322 C   0  0  0  0  0  0  0  0  0  0  0  0
  -10.2517   -7.9349   32.0658 C   0  0  0  0  0  0  0  0  0  0  0  0
   -9.6932   -8.3077   33.2580 C   0  0  0  0  0  0  0  0  0  0  0  0
   -9.6788   -9.6696   33.6855 C   0  0  0  0  0  0  0  0  0  0  0  0
   -9.0526   -7.2455   33.8482 O   0  0  0  0  0  0  0  0  0  0  0  0
   -9.2015   -6.2231   32.8294 C   0  0  0  0  0  0  0  0  0  0  0  0
  -10.0500   -6.6303   31.7440 O   0  0  0  0  0  0  0  0  0  0  0  0
   -4.2966  -16.2323   31.7748 H   0  0  0  0  0  0  0  0  0  0  0  0
   -3.9937  -15.0956   30.6331 H   0  0  0  0  0  0  0  0  0  0  0  0
   -3.7696  -14.7357   32.0966 H   0  0  0  0  0  0  0  0  0  0  0  0
   -6.4065  -13.8093   31.0643 H   0  0  0  0  0  0  0  0  0  0  0  0
   -6.2949  -15.2444   29.1763 H   0  0  0  0  0  0  0  0  0  0  0  0
   -6.0696  -16.7890   30.1708 H   0  0  0  0  0  0  0  0  0  0  0  0
   -4.9193  -16.1131   29.7439 H   0  0  0  0  0  0  0  0  0  0  0  0
   -8.4850  -14.7479   31.3713 H   0  0  0  0  0  0  0  0  0  0  0  0
  -10.1002  -17.4655   33.8888 H   0  0  0  0  0  0  0  0  0  0  0  0
  -11.3828  -18.9562   33.1106 H   0  0  0  0  0  0  0  0  0  0  0  0
  -10.6125  -20.2236   30.1011 H   0  0  0  0  0  0  0  0  0  0  0  0
  -13.4996  -21.8987   29.5911 H   0  0  0  0  0  0  0  0  0  0  0  0
  -12.0099  -22.0477   27.5541 H   0  0  0  0  0  0  0  0  0  0  0  0
  -10.2424  -23.1250   29.0063 H   0  0  0  0  0  0  0  0  0  0  0  0
   -9.3137  -22.2350   32.6027 H   0  0  0  0  0  0  0  0  0  0  0  0
  -11.8496  -13.5098   34.4308 H   0  0  0  0  0  0  0  0  0  0  0  0
  -12.3363  -12.6351   32.9637 H   0  0  0  0  0  0  0  0  0  0  0  0
  -10.1279  -12.2503   34.4754 H   0  0  0  0  0  0  0  0  0  0  0  0
  -11.6391  -10.8741   31.2533 H   0  0  0  0  0  0  0  0  0  0  0  0
  -11.4625   -8.5841   30.4272 H   0  0  0  0  0  0  0  0  0  0  0  0
   -9.1594   -9.9150   34.6096 H   0  0  0  0  0  0  0  0  0  0  0  0
   -8.2097   -5.9701   32.4365 H   0  0  0  0  0  0  0  0  0  0  0  0
   -9.6326   -5.3316   33.2982 H   0  0  0  0  0  0  0  0  0  0  0  0
  1  2  1  0
  2  3  1  0
  2  4  1  0
  4  5  1  0
  5  6  2  0
  5  7  1  0
  7  8  1  0
  8  9  2  0
  9 10  1  0
 10 11  2  0
 11 12  1  0
 12 13  1  0
 13 14  2  0
 14 15  1  0
 15 16  2  0
  4 17  1  0
 17 18  1  0
 18 19  2  0
 18 20  1  0
 20 21  1  0
 21 22  1  0
 22 23  2  0
 23 24  1  0
 24 25  2  0
 25 26  1  0
 26 27  2  0
 26 28  1  0
 28 29  1  0
 29 30  1  0
 16  8  1  0
 21 17  1  0
 27 22  1  0
 15 11  1  0
 30 25  1  0
  1 31  1  0
  1 32  1  0
  1 33  1  0
  2 34  1  0
  3 35  1  0
  3 36  1  0
  3 37  1  0
  4 38  1  0
  7 39  1  0
  9 40  1  0
 10 41  1  0
 12 42  1  0
 13 43  1  0
 14 44  1  0
 16 45  1  0
 20 46  1  0
 20 47  1  0
 21 48  1  0
 23 49  1  0
 24 50  1  0
 27 51  1  0
 29 52  1  0
 29 53  1  0
M  END
>  <Energy>  (264) 
1199.2308216990443

>  <compound_id>  (264) 
4993

>  <target_id>  (264) 
1

>  <reference_id>  (264) 
13

>  <inspiration_ids>  (264) 
[39, 13]

>  <energy_score>  (264) 
1062.600677617938

>  <distance_score>  (264) 
10.145169184605344

>  <path>  (264) 
/opt/xchem-fragalysis-2/maxwin/BulkDock/SCRATCH/511018/C4993-P13/C4993-P13.minimised.mol

>  <scratch_subdir>  (264) 
/opt/xchem-fragalysis-2/maxwin/BulkDock/SCRATCH/511018/C4993-P13

>  <fragmenstein_runtime>  (264) 
50.649752616882324

>  <fragmenstein_outcome>  (264) 
too moved

>  <fragmenstein_mode>  (264) 
expansion

>  <fragmenstein_error>  (264) 


$$$$
C4994-P39
     RDKit          3D

 52 55  0  0  0  0  0  0  0  0999 V2000
   -2.8016  -12.0561   25.7855 C   0  0  0  0  0  0  0  0  0  0  0  0
   -4.1199  -12.3190   25.4970 C   0  0  0  0  0  0  0  0  0  0  0  0
   -4.3851  -12.5608   24.3682 O   0  0  0  0  0  0  0  0  0  0  0  0
   -5.1614  -12.3874   26.9811 N   0  0  0  0  0  0  0  0  0  0  0  0
   -7.0500  -13.0755   27.2578 C   0  0  0  0  0  0  0  0  0  0  0  0
   -8.2197  -14.7613   27.1434 C   0  0  0  0  0  0  0  0  0  0  0  0
   -8.7168  -16.7434   27.0391 C   0  0  0  0  0  0  0  0  0  0  0  0
   -7.8129  -17.1687   27.9662 C   0  0  0  0  0  0  0  0  0  0  0  0
   -8.0488  -18.2657   28.7119 N   0  0  0  0  0  0  0  0  0  0  0  0
   -8.7160  -19.4713   28.4471 C   0  0  0  0  0  0  0  0  0  0  0  0
  -10.1125  -20.5357   29.3952 C   0  0  0  0  0  0  0  0  0  0  0  0
  -10.9150  -21.5972   29.1777 C   0  0  0  0  0  0  0  0  0  0  0  0
  -10.4862  -21.8094   27.9986 C   0  0  0  0  0  0  0  0  0  0  0  0
   -9.8202  -20.5038   27.3876 C   0  0  0  0  0  0  0  0  0  0  0  0
   -9.1976  -18.5772   27.5972 C   0  0  0  0  0  0  0  0  0  0  0  0
   -6.2241  -13.2667   29.1986 C   0  0  0  0  0  0  0  0  0  0  0  0
   -6.4499  -14.0761   30.0725 O   0  0  0  0  0  0  0  0  0  0  0  0
   -5.0596  -12.2462   29.4833 O   0  0  0  0  0  0  0  0  0  0  0  0
   -3.4112  -12.1095   29.9035 C   0  0  0  0  0  0  0  0  0  0  0  0
   -2.4463  -10.6448   30.6626 C   0  0  0  0  0  0  0  0  0  0  0  0
   -2.8558  -10.1786   31.6982 O   0  0  0  0  0  0  0  0  0  0  0  0
   -1.3348  -10.1888   29.7698 N   0  0  0  0  0  0  0  0  0  0  0  0
   -0.5045   -9.0085   29.8221 C   0  0  0  0  0  0  0  0  0  0  0  0
   -0.2296   -8.5499   28.4903 C   0  0  0  0  0  0  0  0  0  0  0  0
   -0.2127   -7.1805   28.1213 C   0  0  0  0  0  0  0  0  0  0  0  0
   -0.2854   -6.2422   29.1187 C   0  0  0  0  0  0  0  0  0  0  0  0
   -0.4985   -6.6232   30.4217 C   0  0  0  0  0  0  0  0  0  0  0  0
   -0.6903   -7.9669   30.7855 C   0  0  0  0  0  0  0  0  0  0  0  0
   -0.5859   -5.5311   31.2412 O   0  0  0  0  0  0  0  0  0  0  0  0
   -0.2466   -4.4582   30.3251 C   0  0  0  0  0  0  0  0  0  0  0  0
   -0.1744   -4.8954   28.9573 O   0  0  0  0  0  0  0  0  0  0  0  0
   -2.4587  -11.2377   26.3678 H   0  0  0  0  0  0  0  0  0  0  0  0
   -2.9438  -13.0091   26.3237 H   0  0  0  0  0  0  0  0  0  0  0  0
   -2.0695  -12.6727   25.3277 H   0  0  0  0  0  0  0  0  0  0  0  0
   -4.6558  -12.0275   27.8016 H   0  0  0  0  0  0  0  0  0  0  0  0
   -7.4501  -12.3781   26.5506 H   0  0  0  0  0  0  0  0  0  0  0  0
   -9.2192  -14.3219   27.1067 H   0  0  0  0  0  0  0  0  0  0  0  0
   -8.0421  -14.7924   28.2054 H   0  0  0  0  0  0  0  0  0  0  0  0
   -6.9497  -16.6847   28.3403 H   0  0  0  0  0  0  0  0  0  0  0  0
   -7.3619  -18.4899   29.3972 H   0  0  0  0  0  0  0  0  0  0  0  0
  -10.3027  -20.3949   30.4943 H   0  0  0  0  0  0  0  0  0  0  0  0
  -11.5704  -22.1381   29.8223 H   0  0  0  0  0  0  0  0  0  0  0  0
  -10.9185  -22.6179   27.4108 H   0  0  0  0  0  0  0  0  0  0  0  0
  -10.5158  -20.7872   26.5333 H   0  0  0  0  0  0  0  0  0  0  0  0
   -3.1551  -11.7682   28.9244 H   0  0  0  0  0  0  0  0  0  0  0  0
   -3.0077  -13.0891   29.7233 H   0  0  0  0  0  0  0  0  0  0  0  0
   -1.2099  -10.8613   29.0277 H   0  0  0  0  0  0  0  0  0  0  0  0
   -0.0903   -9.2835   27.7037 H   0  0  0  0  0  0  0  0  0  0  0  0
   -0.0840   -6.8903   27.0850 H   0  0  0  0  0  0  0  0  0  0  0  0
   -1.0436   -8.1883   31.7887 H   0  0  0  0  0  0  0  0  0  0  0  0
    0.7242   -4.0413   30.6187 H   0  0  0  0  0  0  0  0  0  0  0  0
   -1.0062   -3.6733   30.4096 H   0  0  0  0  0  0  0  0  0  0  0  0
  1  2  1  0
  2  3  2  0
  2  4  1  0
  4  5  1  0
  5  6  1  0
  6  7  1  0
  7  8  2  0
  8  9  1  0
  9 10  1  0
 10 11  2  0
 11 12  1  0
 12 13  2  0
 13 14  1  0
 14 15  2  0
  5 16  1  0
 16 17  2  0
 16 18  1  0
 18 19  1  0
 19 20  1  0
 20 21  2  0
 20 22  1  0
 22 23  1  0
 23 24  2  0
 24 25  1  0
 25 26  2  0
 26 27  1  0
 27 28  2  0
 27 29  1  0
 29 30  1  0
 30 31  1  0
 15  7  1  0
 28 23  1  0
 15 10  1  0
 31 26  1  0
  1 32  1  0
  1 33  1  0
  1 34  1  0
  4 35  1  0
  5 36  1  0
  6 37  1  0
  6 38  1  0
  8 39  1  0
  9 40  1  0
 11 41  1  0
 12 42  1  0
 13 43  1  0
 14 44  1  0
 19 45  1  0
 19 46  1  0
 22 47  1  0
 24 48  1  0
 25 49  1  0
 28 50  1  0
 30 51  1  0
 30 52  1  0
M  END
>  <Energy>  (265) 
1409.9864377872264

>  <compound_id>  (265) 
4994

>  <target_id>  (265) 
1

>  <reference_id>  (265) 
39

>  <inspiration_ids>  (265) 
[39, 13]

>  <energy_score>  (265) 
1326.2883684962064

>  <distance_score>  (265) 
8.129880425807412

>  <path>  (265) 
/opt/xchem-fragalysis-2/maxwin/BulkDock/SCRATCH/511018/C4994-P39/C4994-P39.minimised.mol

>  <scratch_subdir>  (265) 
/opt/xchem-fragalysis-2/maxwin/BulkDock/SCRATCH/511018/C4994-P39

>  <fragmenstein_runtime>  (265) 
53.246188163757324

>  <fragmenstein_outcome>  (265) 
too moved

>  <fragmenstein_mode>  (265) 
expansion

>  <fragmenstein_error>  (265) 


$$$$
C4994-P13
     RDKit          3D

 52 55  0  0  0  0  0  0  0  0999 V2000
   -5.2651  -12.5546   24.3664 C   0  0  0  0  0  0  0  0  0  0  0  0
   -5.1116  -14.4611   23.8040 C   0  0  0  0  0  0  0  0  0  0  0  0
   -4.1614  -14.9520   23.3390 O   0  0  0  0  0  0  0  0  0  0  0  0
   -6.8796  -15.1768   24.0838 N   0  0  0  0  0  0  0  0  0  0  0  0
   -7.4493  -16.6370   23.5850 C   0  0  0  0  0  0  0  0  0  0  0  0
   -6.8190  -17.9000   22.5274 C   0  0  0  0  0  0  0  0  0  0  0  0
   -7.9097  -18.2784   21.4490 C   0  0  0  0  0  0  0  0  0  0  0  0
   -8.2869  -17.4387   20.4132 C   0  0  0  0  0  0  0  0  0  0  0  0
   -9.4956  -17.8548   19.9308 N   0  0  0  0  0  0  0  0  0  0  0  0
   -9.9127  -18.9706   20.6011 C   0  0  0  0  0  0  0  0  0  0  0  0
  -11.1431  -19.6400   20.5525 C   0  0  0  0  0  0  0  0  0  0  0  0
  -11.3015  -20.7362   21.3877 C   0  0  0  0  0  0  0  0  0  0  0  0
  -10.2126  -21.2088   22.0961 C   0  0  0  0  0  0  0  0  0  0  0  0
   -8.9373  -20.6380   21.9735 C   0  0  0  0  0  0  0  0  0  0  0  0
   -8.8335  -19.3792   21.3861 C   0  0  0  0  0  0  0  0  0  0  0  0
   -6.9865  -14.7228   24.0342 C   0  0  0  0  0  0  0  0  0  0  0  0
   -7.1519  -14.3680   25.6095 O   0  0  0  0  0  0  0  0  0  0  0  0
   -6.5564  -13.1711   23.0684 O   0  0  0  0  0  0  0  0  0  0  0  0
   -7.2101  -11.6966   22.4220 C   0  0  0  0  0  0  0  0  0  0  0  0
   -6.7838  -10.1353   22.1598 C   0  0  0  0  0  0  0  0  0  0  0  0
   -5.9008   -9.9178   21.3736 O   0  0  0  0  0  0  0  0  0  0  0  0
   -7.6536   -9.2178   22.8913 N   0  0  0  0  0  0  0  0  0  0  0  0
   -7.7811   -7.8131   22.8244 C   0  0  0  0  0  0  0  0  0  0  0  0
   -7.2065   -7.0923   21.7522 C   0  0  0  0  0  0  0  0  0  0  0  0
   -7.4294   -5.7128   21.5842 C   0  0  0  0  0  0  0  0  0  0  0  0
   -8.1821   -5.0616   22.5364 C   0  0  0  0  0  0  0  0  0  0  0  0
   -8.7041   -5.7390   23.6131 C   0  0  0  0  0  0  0  0  0  0  0  0
   -8.5334   -7.1117   23.7800 C   0  0  0  0  0  0  0  0  0  0  0  0
   -9.3546   -4.8980   24.4688 O   0  0  0  0  0  0  0  0  0  0  0  0
   -9.2118   -3.6320   23.7846 C   0  0  0  0  0  0  0  0  0  0  0  0
   -8.4300   -3.7258   22.5802 O   0  0  0  0  0  0  0  0  0  0  0  0
   -5.6752  -11.6643   23.8913 H   0  0  0  0  0  0  0  0  0  0  0  0
   -6.0685  -12.4087   25.1351 H   0  0  0  0  0  0  0  0  0  0  0  0
   -4.2167  -12.2577   24.5430 H   0  0  0  0  0  0  0  0  0  0  0  0
   -7.8386  -14.2615   24.8761 H   0  0  0  0  0  0  0  0  0  0  0  0
   -8.2530  -16.6250   22.7825 H   0  0  0  0  0  0  0  0  0  0  0  0
   -5.9225  -17.6874   21.9496 H   0  0  0  0  0  0  0  0  0  0  0  0
   -6.6796  -18.7738   23.1485 H   0  0  0  0  0  0  0  0  0  0  0  0
   -7.8524  -16.5153   20.0605 H   0  0  0  0  0  0  0  0  0  0  0  0
  -10.0388  -17.3789   19.2258 H   0  0  0  0  0  0  0  0  0  0  0  0
  -11.9674  -19.2754   19.9513 H   0  0  0  0  0  0  0  0  0  0  0  0
  -12.2641  -21.2297   21.4728 H   0  0  0  0  0  0  0  0  0  0  0  0
  -10.3564  -22.0303   22.7810 H   0  0  0  0  0  0  0  0  0  0  0  0
   -8.0741  -21.0960   22.4409 H   0  0  0  0  0  0  0  0  0  0  0  0
   -7.0142  -11.9171   21.3633 H   0  0  0  0  0  0  0  0  0  0  0  0
   -8.2992  -11.7441   22.4437 H   0  0  0  0  0  0  0  0  0  0  0  0
   -8.2296   -9.7482   23.5325 H   0  0  0  0  0  0  0  0  0  0  0  0
   -6.6042   -7.6058   21.0049 H   0  0  0  0  0  0  0  0  0  0  0  0
   -6.9924   -5.1757   20.7496 H   0  0  0  0  0  0  0  0  0  0  0  0
   -8.9735   -7.6123   24.6351 H   0  0  0  0  0  0  0  0  0  0  0  0
   -8.7453   -2.9086   24.4606 H   0  0  0  0  0  0  0  0  0  0  0  0
  -10.2117   -3.2653   23.5244 H   0  0  0  0  0  0  0  0  0  0  0  0
  1  2  1  0
  2  3  2  0
  2  4  1  0
  4  5  1  0
  5  6  1  0
  6  7  1  0
  7  8  2  0
  8  9  1  0
  9 10  1  0
 10 11  2  0
 11 12  1  0
 12 13  2  0
 13 14  1  0
 14 15  2  0
  5 16  1  0
 16 17  2  0
 16 18  1  0
 18 19  1  0
 19 20  1  0
 20 21  2  0
 20 22  1  0
 22 23  1  0
 23 24  2  0
 24 25  1  0
 25 26  2  0
 26 27  1  0
 27 28  2  0
 27 29  1  0
 29 30  1  0
 30 31  1  0
 15  7  1  0
 28 23  1  0
 15 10  1  0
 31 26  1  0
  1 32  1  0
  1 33  1  0
  1 34  1  0
  4 35  1  0
  5 36  1  0
  6 37  1  0
  6 38  1  0
  8 39  1  0
  9 40  1  0
 11 41  1  0
 12 42  1  0
 13 43  1  0
 14 44  1  0
 19 45  1  0
 19 46  1  0
 22 47  1  0
 24 48  1  0
 25 49  1  0
 28 50  1  0
 30 51  1  0
 30 52  1  0
M  END
>  <Energy>  (266) 
1197.1305599460445

>  <compound_id>  (266) 
4994

>  <target_id>  (266) 
1

>  <reference_id>  (266) 
13

>  <inspiration_ids>  (266) 
[39, 13]

>  <energy_score>  (266) 
1113.4324906550362

>  <distance_score>  (266) 
11.540110314276877

>  <path>  (266) 
/opt/xchem-fragalysis-2/maxwin/BulkDock/SCRATCH/511018/C4994-P13/C4994-P13.minimised.mol

>  <scratch_subdir>  (266) 
/opt/xchem-fragalysis-2/maxwin/BulkDock/SCRATCH/511018/C4994-P13

>  <fragmenstein_runtime>  (266) 
47.94012784957886

>  <fragmenstein_outcome>  (266) 
too moved

>  <fragmenstein_mode>  (266) 
expansion

>  <fragmenstein_error>  (266) 


$$$$
C4995-P39
     RDKit          3D

 41 44  0  0  0  0  0  0  0  0999 V2000
  -12.2385  -22.6919   30.6491 C   0  0  0  0  0  0  0  0  0  0  0  0
  -11.5617  -21.8365   31.4671 C   0  0  0  0  0  0  0  0  0  0  0  0
  -10.6584  -20.8919   30.9062 C   0  0  0  0  0  0  0  0  0  0  0  0
  -10.2915  -20.6331   29.4072 C   0  0  0  0  0  0  0  0  0  0  0  0
   -8.9143  -19.5560   28.3355 C   0  0  0  0  0  0  0  0  0  0  0  0
   -8.0312  -17.6448   28.4063 C   0  0  0  0  0  0  0  0  0  0  0  0
   -6.4197  -16.3797   28.7766 N   0  0  0  0  0  0  0  0  0  0  0  0
   -6.0662  -14.6421   29.7701 C   0  0  0  0  0  0  0  0  0  0  0  0
   -4.8208  -13.0093   29.9398 C   0  0  0  0  0  0  0  0  0  0  0  0
   -4.5021  -11.6264   31.0112 O   0  0  0  0  0  0  0  0  0  0  0  0
   -3.2663  -10.4268   31.4499 C   0  0  0  0  0  0  0  0  0  0  0  0
   -3.7840   -9.3555   32.3006 C   0  0  0  0  0  0  0  0  0  0  0  0
   -3.0499   -8.2019   32.6367 C   0  0  0  0  0  0  0  0  0  0  0  0
   -1.7929   -8.0579   32.1030 C   0  0  0  0  0  0  0  0  0  0  0  0
   -1.2021   -9.0758   31.3838 C   0  0  0  0  0  0  0  0  0  0  0  0
   -1.8892  -10.2765   31.0487 C   0  0  0  0  0  0  0  0  0  0  0  0
   -0.0386   -8.6487   30.8023 O   0  0  0  0  0  0  0  0  0  0  0  0
    0.0456   -7.2824   31.2706 C   0  0  0  0  0  0  0  0  0  0  0  0
   -1.0781   -6.8989   32.0895 O   0  0  0  0  0  0  0  0  0  0  0  0
   -9.4306  -20.9936   27.5379 C   0  0  0  0  0  0  0  0  0  0  0  0
  -10.7795  -21.4125   27.5517 N   0  0  0  0  0  0  0  0  0  0  0  0
  -11.0759  -21.6445   28.8060 C   0  0  0  0  0  0  0  0  0  0  0  0
  -11.9946  -22.6001   29.2984 C   0  0  0  0  0  0  0  0  0  0  0  0
  -12.9315  -23.4273   31.0497 H   0  0  0  0  0  0  0  0  0  0  0  0
  -11.7028  -21.8845   32.5438 H   0  0  0  0  0  0  0  0  0  0  0  0
  -10.1785  -20.3523   31.7244 H   0  0  0  0  0  0  0  0  0  0  0  0
   -8.4633  -16.7851   27.8693 H   0  0  0  0  0  0  0  0  0  0  0  0
   -8.0556  -17.7787   27.3891 H   0  0  0  0  0  0  0  0  0  0  0  0
   -5.7406  -16.9672   29.2977 H   0  0  0  0  0  0  0  0  0  0  0  0
   -6.2701  -14.8040   30.8108 H   0  0  0  0  0  0  0  0  0  0  0  0
   -6.8189  -14.0542   29.2173 H   0  0  0  0  0  0  0  0  0  0  0  0
   -3.7900  -13.2690   29.6852 H   0  0  0  0  0  0  0  0  0  0  0  0
   -5.2032  -12.3474   29.1797 H   0  0  0  0  0  0  0  0  0  0  0  0
   -4.7647   -9.4716   32.7339 H   0  0  0  0  0  0  0  0  0  0  0  0
   -3.4958   -7.4285   33.2516 H   0  0  0  0  0  0  0  0  0  0  0  0
   -1.4256  -10.9553   30.3692 H   0  0  0  0  0  0  0  0  0  0  0  0
    0.9655   -7.1674   31.8551 H   0  0  0  0  0  0  0  0  0  0  0  0
    0.0906   -6.6175   30.4007 H   0  0  0  0  0  0  0  0  0  0  0  0
   -8.6873  -21.8154   27.4697 H   0  0  0  0  0  0  0  0  0  0  0  0
  -11.2753  -21.8892   26.8069 H   0  0  0  0  0  0  0  0  0  0  0  0
  -12.4933  -23.2824   28.6141 H   0  0  0  0  0  0  0  0  0  0  0  0
  1  2  2  0
  2  3  1  0
  3  4  2  0
  4  5  1  0
  5  6  1  0
  6  7  1  0
  7  8  1  0
  8  9  1  0
  9 10  1  0
 10 11  1  0
 11 12  2  0
 12 13  1  0
 13 14  2  0
 14 15  1  0
 15 16  2  0
 15 17  1  0
 17 18  1  0
 18 19  1  0
  5 20  2  0
 20 21  1  0
 21 22  1  0
 22 23  2  0
 23  1  1  0
 22  4  1  0
 16 11  1  0
 19 14  1  0
  1 24  1  0
  2 25  1  0
  3 26  1  0
  6 27  1  0
  6 28  1  0
  7 29  1  0
  8 30  1  0
  8 31  1  0
  9 32  1  0
  9 33  1  0
 12 34  1  0
 13 35  1  0
 16 36  1  0
 18 37  1  0
 18 38  1  0
 20 39  1  0
 21 40  1  0
 23 41  1  0
M  END
>  <Energy>  (267) 
977.99489080327226

>  <compound_id>  (267) 
4995

>  <target_id>  (267) 
1

>  <reference_id>  (267) 
39

>  <inspiration_ids>  (267) 
[39, 13]

>  <energy_score>  (267) 
896.3542906058246

>  <distance_score>  (267) 
7.915083645070674

>  <path>  (267) 
/opt/xchem-fragalysis-2/maxwin/BulkDock/SCRATCH/511018/C4995-P39/C4995-P39.minimised.mol

>  <scratch_subdir>  (267) 
/opt/xchem-fragalysis-2/maxwin/BulkDock/SCRATCH/511018/C4995-P39

>  <fragmenstein_runtime>  (267) 
14.845016241073608

>  <fragmenstein_outcome>  (267) 
too moved

>  <fragmenstein_mode>  (267) 
expansion

>  <fragmenstein_error>  (267) 


$$$$
C4995-P13
     RDKit          3D

 41 44  0  0  0  0  0  0  0  0999 V2000
  -12.2340  -21.9690   28.2113 C   0  0  0  0  0  0  0  0  0  0  0  0
  -12.4265  -21.2845   29.3888 C   0  0  0  0  0  0  0  0  0  0  0  0
  -11.3125  -20.7619   30.0058 C   0  0  0  0  0  0  0  0  0  0  0  0
  -10.2586  -20.2442   29.1292 C   0  0  0  0  0  0  0  0  0  0  0  0
   -9.2399  -18.5156   28.2116 C   0  0  0  0  0  0  0  0  0  0  0  0
   -8.5103  -16.5284   27.6887 C   0  0  0  0  0  0  0  0  0  0  0  0
   -7.8359  -14.5209   27.8522 N   0  0  0  0  0  0  0  0  0  0  0  0
   -6.4184  -13.1119   27.0974 C   0  0  0  0  0  0  0  0  0  0  0  0
   -4.4134  -12.0287   27.2308 C   0  0  0  0  0  0  0  0  0  0  0  0
   -2.7591  -10.8516   26.6152 O   0  0  0  0  0  0  0  0  0  0  0  0
   -2.7679   -8.8492   26.0760 C   0  0  0  0  0  0  0  0  0  0  0  0
   -3.0930   -7.7307   27.3496 C   0  0  0  0  0  0  0  0  0  0  0  0
   -2.0380   -7.6342   28.8523 C   0  0  0  0  0  0  0  0  0  0  0  0
   -1.4587   -6.6200   29.2913 C   0  0  0  0  0  0  0  0  0  0  0  0
   -1.9479   -6.1428   28.1616 C   0  0  0  0  0  0  0  0  0  0  0  0
   -2.3257   -7.2684   26.6504 C   0  0  0  0  0  0  0  0  0  0  0  0
   -1.3095   -4.7450   28.1790 O   0  0  0  0  0  0  0  0  0  0  0  0
   -0.5758   -4.7152   29.4270 C   0  0  0  0  0  0  0  0  0  0  0  0
   -0.6160   -6.0158   30.0653 O   0  0  0  0  0  0  0  0  0  0  0  0
   -8.7306  -19.7701   28.3745 C   0  0  0  0  0  0  0  0  0  0  0  0
   -9.7734  -20.7415   27.6939 N   0  0  0  0  0  0  0  0  0  0  0  0
  -10.3229  -21.6234   28.4486 C   0  0  0  0  0  0  0  0  0  0  0  0
  -11.1161  -22.6815   28.1909 C   0  0  0  0  0  0  0  0  0  0  0  0
  -12.9407  -22.2127   27.4412 H   0  0  0  0  0  0  0  0  0  0  0  0
  -13.3430  -21.2764   29.9194 H   0  0  0  0  0  0  0  0  0  0  0  0
  -11.2949  -20.6312   31.0544 H   0  0  0  0  0  0  0  0  0  0  0  0
   -9.5020  -16.2488   27.2332 H   0  0  0  0  0  0  0  0  0  0  0  0
   -8.3150  -16.4739   26.6387 H   0  0  0  0  0  0  0  0  0  0  0  0
   -8.6862  -14.0461   27.5208 H   0  0  0  0  0  0  0  0  0  0  0  0
   -6.9235  -12.6869   26.2434 H   0  0  0  0  0  0  0  0  0  0  0  0
   -6.7406  -12.6395   27.9835 H   0  0  0  0  0  0  0  0  0  0  0  0
   -4.1651  -11.9697   28.3181 H   0  0  0  0  0  0  0  0  0  0  0  0
   -3.6068  -12.6938   26.8301 H   0  0  0  0  0  0  0  0  0  0  0  0
   -4.1596   -7.8236   27.7354 H   0  0  0  0  0  0  0  0  0  0  0  0
   -1.2719   -8.4580   28.9772 H   0  0  0  0  0  0  0  0  0  0  0  0
   -2.0932   -6.6661   25.7176 H   0  0  0  0  0  0  0  0  0  0  0  0
   -1.0158   -3.9630   30.0923 H   0  0  0  0  0  0  0  0  0  0  0  0
    0.4673   -4.4457   29.2272 H   0  0  0  0  0  0  0  0  0  0  0  0
   -7.9591  -20.5658   27.9559 H   0  0  0  0  0  0  0  0  0  0  0  0
  -10.3304  -20.5390   26.8961 H   0  0  0  0  0  0  0  0  0  0  0  0
  -10.9129  -23.4197   27.4264 H   0  0  0  0  0  0  0  0  0  0  0  0
  1  2  2  0
  2  3  1  0
  3  4  2  0
  4  5  1  0
  5  6  1  0
  6  7  1  0
  7  8  1  0
  8  9  1  0
  9 10  1  0
 10 11  1  0
 11 12  2  0
 12 13  1  0
 13 14  2  0
 14 15  1  0
 15 16  2  0
 15 17  1  0
 17 18  1  0
 18 19  1  0
  5 20  2  0
 20 21  1  0
 21 22  1  0
 22 23  2  0
 23  1  1  0
 22  4  1  0
 16 11  1  0
 19 14  1  0
  1 24  1  0
  2 25  1  0
  3 26  1  0
  6 27  1  0
  6 28  1  0
  7 29  1  0
  8 30  1  0
  8 31  1  0
  9 32  1  0
  9 33  1  0
 12 34  1  0
 13 35  1  0
 16 36  1  0
 18 37  1  0
 18 38  1  0
 20 39  1  0
 21 40  1  0
 23 41  1  0
M  END
>  <Energy>  (268) 
2365.3394770979494

>  <compound_id>  (268) 
4995

>  <target_id>  (268) 
1

>  <reference_id>  (268) 
13

>  <inspiration_ids>  (268) 
[39, 13]

>  <energy_score>  (268) 
2283.6988769005593

>  <distance_score>  (268) 
6.401840530551367

>  <path>  (268) 
/opt/xchem-fragalysis-2/maxwin/BulkDock/SCRATCH/511018/C4995-P13/C4995-P13.minimised.mol

>  <scratch_subdir>  (268) 
/opt/xchem-fragalysis-2/maxwin/BulkDock/SCRATCH/511018/C4995-P13

>  <fragmenstein_runtime>  (268) 
29.975695848464966

>  <fragmenstein_outcome>  (268) 
too moved

>  <fragmenstein_mode>  (268) 
expansion

>  <fragmenstein_error>  (268) 


$$$$
C4996-P39
     RDKit          3D

 38 41  0  0  0  0  0  0  0  0999 V2000
   -3.1590  -13.9419   29.3571 O   0  0  0  0  0  0  0  0  0  0  0  0
   -4.0877  -13.2072   29.8217 C   0  0  0  0  0  0  0  0  0  0  0  0
   -5.8438  -14.1394   29.9363 C   0  0  0  0  0  0  0  0  0  0  0  0
   -5.9202  -16.0129   29.2174 C   0  0  0  0  0  0  0  0  0  0  0  0
   -7.3518  -17.0127   28.1937 C   0  0  0  0  0  0  0  0  0  0  0  0
   -8.3554  -16.4944   27.3226 C   0  0  0  0  0  0  0  0  0  0  0  0
   -9.2936  -17.4699   27.0114 N   0  0  0  0  0  0  0  0  0  0  0  0
   -9.1765  -18.8606   27.9255 C   0  0  0  0  0  0  0  0  0  0  0  0
   -9.9112  -20.6952   27.9243 C   0  0  0  0  0  0  0  0  0  0  0  0
   -9.4878  -22.1948   28.0048 C   0  0  0  0  0  0  0  0  0  0  0  0
   -8.1239  -22.1373   27.7935 C   0  0  0  0  0  0  0  0  0  0  0  0
   -7.5558  -20.4330   27.8335 C   0  0  0  0  0  0  0  0  0  0  0  0
   -8.0179  -18.6705   28.2505 C   0  0  0  0  0  0  0  0  0  0  0  0
   -3.4616  -11.7403   30.3070 O   0  0  0  0  0  0  0  0  0  0  0  0
   -2.1934  -10.5298   30.7696 C   0  0  0  0  0  0  0  0  0  0  0  0
   -2.6364   -9.5807   31.8153 C   0  0  0  0  0  0  0  0  0  0  0  0
   -2.0214   -8.3043   32.0113 C   0  0  0  0  0  0  0  0  0  0  0  0
   -1.0358   -7.8827   31.1246 C   0  0  0  0  0  0  0  0  0  0  0  0
   -0.5528   -8.7169   30.1211 C   0  0  0  0  0  0  0  0  0  0  0  0
   -1.0580  -10.0568   29.9221 C   0  0  0  0  0  0  0  0  0  0  0  0
    0.2506   -8.0274   29.2562 O   0  0  0  0  0  0  0  0  0  0  0  0
    0.2595   -6.7065   29.8480 C   0  0  0  0  0  0  0  0  0  0  0  0
   -0.5885   -6.6007   31.0117 O   0  0  0  0  0  0  0  0  0  0  0  0
   -6.3446  -14.1337   30.8825 H   0  0  0  0  0  0  0  0  0  0  0  0
   -6.5706  -13.7143   29.2683 H   0  0  0  0  0  0  0  0  0  0  0  0
   -4.8849  -16.2935   28.9983 H   0  0  0  0  0  0  0  0  0  0  0  0
   -5.7821  -16.5458   30.1631 H   0  0  0  0  0  0  0  0  0  0  0  0
   -8.5115  -15.5129   26.8776 H   0  0  0  0  0  0  0  0  0  0  0  0
  -10.0275  -17.3213   26.3388 H   0  0  0  0  0  0  0  0  0  0  0  0
  -11.0157  -20.8837   27.7387 H   0  0  0  0  0  0  0  0  0  0  0  0
  -10.1564  -23.0391   27.9912 H   0  0  0  0  0  0  0  0  0  0  0  0
   -7.3655  -22.8596   27.5787 H   0  0  0  0  0  0  0  0  0  0  0  0
   -8.3080  -20.9301   27.1236 H   0  0  0  0  0  0  0  0  0  0  0  0
   -3.5826   -9.7154   32.3209 H   0  0  0  0  0  0  0  0  0  0  0  0
   -2.4230   -7.6193   32.7522 H   0  0  0  0  0  0  0  0  0  0  0  0
   -0.7743  -10.4876   28.9783 H   0  0  0  0  0  0  0  0  0  0  0  0
    1.2834   -6.4591   30.1468 H   0  0  0  0  0  0  0  0  0  0  0  0
   -0.0797   -5.9845   29.0970 H   0  0  0  0  0  0  0  0  0  0  0  0
  1  2  2  0
  2  3  1  0
  3  4  1  0
  4  5  1  0
  5  6  2  0
  6  7  1  0
  7  8  1  0
  8  9  2  0
  9 10  1  0
 10 11  2  0
 11 12  1  0
 12 13  2  0
  2 14  1  0
 14 15  1  0
 15 16  2  0
 16 17  1  0
 17 18  2  0
 18 19  1  0
 19 20  2  0
 19 21  1  0
 21 22  1  0
 22 23  1  0
 13  5  1  0
 20 15  1  0
 13  8  1  0
 23 18  1  0
  3 24  1  0
  3 25  1  0
  4 26  1  0
  4 27  1  0
  6 28  1  0
  7 29  1  0
  9 30  1  0
 10 31  1  0
 11 32  1  0
 12 33  1  0
 16 34  1  0
 17 35  1  0
 20 36  1  0
 22 37  1  0
 22 38  1  0
M  END
>  <Energy>  (269) 
828.02993696927865

>  <compound_id>  (269) 
4996

>  <target_id>  (269) 
1

>  <reference_id>  (269) 
39

>  <inspiration_ids>  (269) 
[39, 13]

>  <energy_score>  (269) 
752.5879047916433

>  <distance_score>  (269) 
8.475960716160326

>  <path>  (269) 
/opt/xchem-fragalysis-2/maxwin/BulkDock/SCRATCH/511018/C4996-P39/C4996-P39.minimised.mol

>  <scratch_subdir>  (269) 
/opt/xchem-fragalysis-2/maxwin/BulkDock/SCRATCH/511018/C4996-P39

>  <fragmenstein_runtime>  (269) 
20.61814260482788

>  <fragmenstein_outcome>  (269) 
too moved

>  <fragmenstein_mode>  (269) 
expansion

>  <fragmenstein_error>  (269) 


$$$$
C4996-P13
     RDKit          3D

 38 41  0  0  0  0  0  0  0  0999 V2000
   -6.3685  -14.0945   29.7880 O   0  0  0  0  0  0  0  0  0  0  0  0
   -6.9011  -13.5981   28.7475 C   0  0  0  0  0  0  0  0  0  0  0  0
   -8.2425  -14.9812   27.9240 C   0  0  0  0  0  0  0  0  0  0  0  0
   -8.6512  -17.1074   27.8538 C   0  0  0  0  0  0  0  0  0  0  0  0
   -9.3728  -19.0891   28.1867 C   0  0  0  0  0  0  0  0  0  0  0  0
   -9.5101  -20.6429   27.7631 C   0  0  0  0  0  0  0  0  0  0  0  0
  -10.7879  -21.1043   27.1783 N   0  0  0  0  0  0  0  0  0  0  0  0
  -11.7096  -21.2730   28.1399 C   0  0  0  0  0  0  0  0  0  0  0  0
  -12.3285  -22.4771   27.7315 C   0  0  0  0  0  0  0  0  0  0  0  0
  -11.4094  -23.4628   27.6750 C   0  0  0  0  0  0  0  0  0  0  0  0
  -10.4368  -23.2217   28.5724 C   0  0  0  0  0  0  0  0  0  0  0  0
  -10.6766  -22.0405   29.5206 C   0  0  0  0  0  0  0  0  0  0  0  0
  -10.5764  -20.5529   29.1781 C   0  0  0  0  0  0  0  0  0  0  0  0
   -6.3090  -11.7308   28.5457 O   0  0  0  0  0  0  0  0  0  0  0  0
   -6.7426   -9.7536   28.8509 C   0  0  0  0  0  0  0  0  0  0  0  0
   -5.8345   -8.4536   29.1937 C   0  0  0  0  0  0  0  0  0  0  0  0
   -4.2421   -7.7318   29.2277 C   0  0  0  0  0  0  0  0  0  0  0  0
   -3.5093   -7.5038   28.2657 C   0  0  0  0  0  0  0  0  0  0  0  0
   -4.5534   -8.0099   27.5143 C   0  0  0  0  0  0  0  0  0  0  0  0
   -6.1777   -8.9808   27.5805 C   0  0  0  0  0  0  0  0  0  0  0  0
   -3.3720   -8.0749   26.5342 O   0  0  0  0  0  0  0  0  0  0  0  0
   -2.5092   -7.0908   26.7934 C   0  0  0  0  0  0  0  0  0  0  0  0
   -2.2821   -7.1397   28.1370 O   0  0  0  0  0  0  0  0  0  0  0  0
   -9.0996  -14.2773   28.0117 H   0  0  0  0  0  0  0  0  0  0  0  0
   -8.2800  -14.7968   26.8217 H   0  0  0  0  0  0  0  0  0  0  0  0
   -9.1503  -16.9815   26.8915 H   0  0  0  0  0  0  0  0  0  0  0  0
   -7.6380  -17.2168   28.0926 H   0  0  0  0  0  0  0  0  0  0  0  0
   -8.4682  -21.1560   27.6342 H   0  0  0  0  0  0  0  0  0  0  0  0
  -11.1623  -20.8838   26.2737 H   0  0  0  0  0  0  0  0  0  0  0  0
  -13.0046  -22.4740   26.8768 H   0  0  0  0  0  0  0  0  0  0  0  0
  -11.3647  -24.1967   26.8866 H   0  0  0  0  0  0  0  0  0  0  0  0
   -9.4575  -23.5185   28.1955 H   0  0  0  0  0  0  0  0  0  0  0  0
  -11.5310  -22.1534   30.1978 H   0  0  0  0  0  0  0  0  0  0  0  0
   -6.1768   -7.3747   29.0883 H   0  0  0  0  0  0  0  0  0  0  0  0
   -3.5876   -7.7878   30.1640 H   0  0  0  0  0  0  0  0  0  0  0  0
   -6.9933   -9.1130   26.8576 H   0  0  0  0  0  0  0  0  0  0  0  0
   -2.0421   -7.2268   25.8479 H   0  0  0  0  0  0  0  0  0  0  0  0
   -2.3707   -6.0591   26.5479 H   0  0  0  0  0  0  0  0  0  0  0  0
  1  2  2  0
  2  3  1  0
  3  4  1  0
  4  5  1  0
  5  6  2  0
  6  7  1  0
  7  8  1  0
  8  9  2  0
  9 10  1  0
 10 11  2  0
 11 12  1  0
 12 13  2  0
  2 14  1  0
 14 15  1  0
 15 16  2  0
 16 17  1  0
 17 18  2  0
 18 19  1  0
 19 20  2  0
 19 21  1  0
 21 22  1  0
 22 23  1  0
 13  5  1  0
 20 15  1  0
 13  8  1  0
 23 18  1  0
  3 24  1  0
  3 25  1  0
  4 26  1  0
  4 27  1  0
  6 28  1  0
  7 29  1  0
  9 30  1  0
 10 31  1  0
 11 32  1  0
 12 33  1  0
 16 34  1  0
 17 35  1  0
 20 36  1  0
 22 37  1  0
 22 38  1  0
M  END
>  <Energy>  (270) 
1822.6877201710504

>  <compound_id>  (270) 
4996

>  <target_id>  (270) 
1

>  <reference_id>  (270) 
13

>  <inspiration_ids>  (270) 
[39, 13]

>  <energy_score>  (270) 
1747.2456879934257

>  <distance_score>  (270) 
7.4567931320668475

>  <path>  (270) 
/opt/xchem-fragalysis-2/maxwin/BulkDock/SCRATCH/511018/C4996-P13/C4996-P13.minimised.mol

>  <scratch_subdir>  (270) 
/opt/xchem-fragalysis-2/maxwin/BulkDock/SCRATCH/511018/C4996-P13

>  <fragmenstein_runtime>  (270) 
21.611568689346313

>  <fragmenstein_outcome>  (270) 
too moved

>  <fragmenstein_mode>  (270) 
expansion

>  <fragmenstein_error>  (270) 


$$$$
C5006-P39
     RDKit          3D

 45 49  0  0  0  0  0  0  0  0999 V2000
   -1.9634  -11.1808   30.2571 O   0  0  0  0  0  0  0  0  0  0  0  0
   -3.0507  -11.0156   30.7525 C   0  0  0  0  0  0  0  0  0  0  0  0
   -3.0081   -9.5766   31.8454 C   0  0  0  0  0  0  0  0  0  0  0  0
   -1.8568   -8.7784   31.2740 O   0  0  0  0  0  0  0  0  0  0  0  0
   -1.4127   -7.5019   31.4554 C   0  0  0  0  0  0  0  0  0  0  0  0
   -1.4655   -6.7449   32.6220 C   0  0  0  0  0  0  0  0  0  0  0  0
   -1.0188   -5.3958   32.6314 C   0  0  0  0  0  0  0  0  0  0  0  0
   -0.5286   -4.8356   31.4668 C   0  0  0  0  0  0  0  0  0  0  0  0
   -0.3802   -5.6005   30.3437 C   0  0  0  0  0  0  0  0  0  0  0  0
   -0.7858   -6.9294   30.3225 C   0  0  0  0  0  0  0  0  0  0  0  0
    0.0647   -4.8766   29.2787 O   0  0  0  0  0  0  0  0  0  0  0  0
    0.1115   -3.5495   29.8427 C   0  0  0  0  0  0  0  0  0  0  0  0
   -0.1995   -3.5316   31.2572 O   0  0  0  0  0  0  0  0  0  0  0  0
   -4.4425  -11.9864   30.6295 N   0  0  0  0  0  0  0  0  0  0  0  0
   -4.6476  -13.3707   29.9527 C   0  0  0  0  0  0  0  0  0  0  0  0
   -5.9901  -14.5258   29.8931 C   0  0  0  0  0  0  0  0  0  0  0  0
   -6.0784  -16.1981   29.1249 C   0  0  0  0  0  0  0  0  0  0  0  0
   -7.5150  -17.3944   28.3758 N   0  0  0  0  0  0  0  0  0  0  0  0
   -8.3173  -16.6163   27.4673 C   0  0  0  0  0  0  0  0  0  0  0  0
   -9.2963  -17.3290   26.9215 C   0  0  0  0  0  0  0  0  0  0  0  0
   -9.1813  -18.7214   27.7030 C   0  0  0  0  0  0  0  0  0  0  0  0
   -9.7750  -20.6036   27.3869 C   0  0  0  0  0  0  0  0  0  0  0  0
  -10.7763  -21.5873   27.8266 C   0  0  0  0  0  0  0  0  0  0  0  0
  -10.9422  -21.3355   29.0701 C   0  0  0  0  0  0  0  0  0  0  0  0
   -9.9247  -20.3565   29.3169 C   0  0  0  0  0  0  0  0  0  0  0  0
   -8.3888  -19.1262   28.6032 C   0  0  0  0  0  0  0  0  0  0  0  0
   -4.7604  -16.5194   29.1802 N   0  0  0  0  0  0  0  0  0  0  0  0
   -3.5328  -15.5295   29.2900 C   0  0  0  0  0  0  0  0  0  0  0  0
   -3.4007  -14.0548   29.5582 N   0  0  0  0  0  0  0  0  0  0  0  0
   -2.6215   -9.8179   32.8288 H   0  0  0  0  0  0  0  0  0  0  0  0
   -3.9137   -8.9750   31.8854 H   0  0  0  0  0  0  0  0  0  0  0  0
   -1.8525   -7.1814   33.5369 H   0  0  0  0  0  0  0  0  0  0  0  0
   -1.1021   -4.7977   33.5342 H   0  0  0  0  0  0  0  0  0  0  0  0
   -0.6598   -7.5094   29.4114 H   0  0  0  0  0  0  0  0  0  0  0  0
    1.1187   -3.1425   29.7010 H   0  0  0  0  0  0  0  0  0  0  0  0
   -0.6089   -2.9137   29.3147 H   0  0  0  0  0  0  0  0  0  0  0  0
   -5.1652  -11.6209   31.2254 H   0  0  0  0  0  0  0  0  0  0  0  0
   -6.8036  -14.0513   30.4241 H   0  0  0  0  0  0  0  0  0  0  0  0
   -8.2457  -15.5369   27.3425 H   0  0  0  0  0  0  0  0  0  0  0  0
  -10.0051  -16.9725   26.1854 H   0  0  0  0  0  0  0  0  0  0  0  0
   -8.8316  -21.2535   27.3653 H   0  0  0  0  0  0  0  0  0  0  0  0
  -11.1281  -22.4764   27.3326 H   0  0  0  0  0  0  0  0  0  0  0  0
  -11.5569  -21.8407   29.7913 H   0  0  0  0  0  0  0  0  0  0  0  0
  -10.1570  -20.4272   30.4609 H   0  0  0  0  0  0  0  0  0  0  0  0
   -2.8690  -15.7707   28.4550 H   0  0  0  0  0  0  0  0  0  0  0  0
  1  2  2  0
  2  3  1  0
  3  4  1  0
  4  5  1  0
  5  6  2  0
  6  7  1  0
  7  8  2  0
  8  9  1  0
  9 10  2  0
  9 11  1  0
 11 12  1  0
 12 13  1  0
  2 14  1  0
 14 15  1  0
 15 16  2  0
 16 17  1  0
 17 18  1  0
 18 19  1  0
 19 20  2  0
 20 21  1  0
 21 22  2  0
 22 23  1  0
 23 24  2  0
 24 25  1  0
 25 26  2  0
 17 27  2  0
 27 28  1  0
 28 29  2  0
 10  5  1  0
 29 15  1  0
 13  8  1  0
 26 18  1  0
 26 21  1  0
  3 30  1  0
  3 31  1  0
  6 32  1  0
  7 33  1  0
 10 34  1  0
 12 35  1  0
 12 36  1  0
 14 37  1  0
 16 38  1  0
 19 39  1  0
 20 40  1  0
 22 41  1  0
 23 42  1  0
 24 43  1  0
 25 44  1  0
 28 45  1  0
M  END
>  <Energy>  (271) 
1102.8415710599422

>  <compound_id>  (271) 
5006

>  <target_id>  (271) 
1

>  <reference_id>  (271) 
39

>  <inspiration_ids>  (271) 
[39, 13]

>  <energy_score>  (271) 
1026.1513653627617

>  <distance_score>  (271) 
7.6073737965448895

>  <path>  (271) 
/opt/xchem-fragalysis-2/maxwin/BulkDock/SCRATCH/511018/C5006-P39/C5006-P39.minimised.mol

>  <scratch_subdir>  (271) 
/opt/xchem-fragalysis-2/maxwin/BulkDock/SCRATCH/511018/C5006-P39

>  <fragmenstein_runtime>  (271) 
23.810821056365967

>  <fragmenstein_outcome>  (271) 
too moved

>  <fragmenstein_mode>  (271) 
expansion

>  <fragmenstein_error>  (271) 


$$$$
C5006-P13
     RDKit          3D

 45 49  0  0  0  0  0  0  0  0999 V2000
    1.8007  -14.4066   31.6117 O   0  0  0  0  0  0  0  0  0  0  0  0
    1.0460  -13.9096   32.4049 C   0  0  0  0  0  0  0  0  0  0  0  0
    1.3753  -12.3977   32.9289 C   0  0  0  0  0  0  0  0  0  0  0  0
    0.4866  -11.3713   32.3532 O   0  0  0  0  0  0  0  0  0  0  0  0
    0.8354  -10.0791   31.9969 C   0  0  0  0  0  0  0  0  0  0  0  0
    2.1326   -9.5607   31.8738 C   0  0  0  0  0  0  0  0  0  0  0  0
    2.3582   -8.2182   31.4620 C   0  0  0  0  0  0  0  0  0  0  0  0
    1.2774   -7.4051   31.1830 C   0  0  0  0  0  0  0  0  0  0  0  0
    0.0016   -7.8904   31.2921 C   0  0  0  0  0  0  0  0  0  0  0  0
   -0.2429   -9.2079   31.6884 C   0  0  0  0  0  0  0  0  0  0  0  0
   -0.9298   -6.9431   30.9788 O   0  0  0  0  0  0  0  0  0  0  0  0
   -0.0864   -5.7808   30.7700 C   0  0  0  0  0  0  0  0  0  0  0  0
    1.3187   -6.1010   30.7950 O   0  0  0  0  0  0  0  0  0  0  0  0
   -0.2357  -14.3961   32.9451 N   0  0  0  0  0  0  0  0  0  0  0  0
   -1.0237  -15.5671   32.6132 C   0  0  0  0  0  0  0  0  0  0  0  0
   -2.4033  -15.2462   32.0290 C   0  0  0  0  0  0  0  0  0  0  0  0
   -3.4673  -16.1547   31.8002 C   0  0  0  0  0  0  0  0  0  0  0  0
   -4.6991  -15.7043   30.8414 N   0  0  0  0  0  0  0  0  0  0  0  0
   -5.5831  -14.8767   31.3680 C   0  0  0  0  0  0  0  0  0  0  0  0
   -6.3215  -14.0598   30.6318 C   0  0  0  0  0  0  0  0  0  0  0  0
   -6.3867  -14.6138   29.4009 C   0  0  0  0  0  0  0  0  0  0  0  0
   -7.5822  -14.4248   28.3379 C   0  0  0  0  0  0  0  0  0  0  0  0
   -8.2524  -15.5736   27.7488 C   0  0  0  0  0  0  0  0  0  0  0  0
   -7.6691  -16.8036   28.1563 C   0  0  0  0  0  0  0  0  0  0  0  0
   -6.2210  -17.1100   29.1456 C   0  0  0  0  0  0  0  0  0  0  0  0
   -5.6506  -16.0041   29.7978 C   0  0  0  0  0  0  0  0  0  0  0  0
   -3.0022  -17.6086   32.3751 N   0  0  0  0  0  0  0  0  0  0  0  0
   -1.5697  -17.7958   32.8296 C   0  0  0  0  0  0  0  0  0  0  0  0
   -0.6117  -16.8191   32.9573 N   0  0  0  0  0  0  0  0  0  0  0  0
    2.4195  -12.1926   32.6783 H   0  0  0  0  0  0  0  0  0  0  0  0
    1.2555  -12.3752   34.0165 H   0  0  0  0  0  0  0  0  0  0  0  0
    3.0022  -10.1796   32.0764 H   0  0  0  0  0  0  0  0  0  0  0  0
    3.3709   -7.8367   31.3710 H   0  0  0  0  0  0  0  0  0  0  0  0
   -1.2651   -9.5569   31.7778 H   0  0  0  0  0  0  0  0  0  0  0  0
   -0.3297   -5.3252   29.8067 H   0  0  0  0  0  0  0  0  0  0  0  0
   -0.2976   -5.0526   31.5625 H   0  0  0  0  0  0  0  0  0  0  0  0
   -0.5588  -13.7571   33.6563 H   0  0  0  0  0  0  0  0  0  0  0  0
   -2.6202  -14.2775   31.7091 H   0  0  0  0  0  0  0  0  0  0  0  0
   -5.6338  -14.7474   32.3545 H   0  0  0  0  0  0  0  0  0  0  0  0
   -6.8602  -13.3376   31.1860 H   0  0  0  0  0  0  0  0  0  0  0  0
   -7.7472  -13.4788   27.8676 H   0  0  0  0  0  0  0  0  0  0  0  0
   -8.9943  -15.4988   26.9575 H   0  0  0  0  0  0  0  0  0  0  0  0
   -8.3250  -17.6823   28.0652 H   0  0  0  0  0  0  0  0  0  0  0  0
   -6.2907  -18.0609   29.6432 H   0  0  0  0  0  0  0  0  0  0  0  0
   -1.3054  -18.8190   33.0766 H   0  0  0  0  0  0  0  0  0  0  0  0
  1  2  2  0
  2  3  1  0
  3  4  1  0
  4  5  1  0
  5  6  2  0
  6  7  1  0
  7  8  2  0
  8  9  1  0
  9 10  2  0
  9 11  1  0
 11 12  1  0
 12 13  1  0
  2 14  1  0
 14 15  1  0
 15 16  2  0
 16 17  1  0
 17 18  1  0
 18 19  1  0
 19 20  2  0
 20 21  1  0
 21 22  2  0
 22 23  1  0
 23 24  2  0
 24 25  1  0
 25 26  2  0
 17 27  2  0
 27 28  1  0
 28 29  2  0
 10  5  1  0
 29 15  1  0
 13  8  1  0
 26 18  1  0
 26 21  1  0
  3 30  1  0
  3 31  1  0
  6 32  1  0
  7 33  1  0
 10 34  1  0
 12 35  1  0
 12 36  1  0
 14 37  1  0
 16 38  1  0
 19 39  1  0
 20 40  1  0
 22 41  1  0
 23 42  1  0
 24 43  1  0
 25 44  1  0
 28 45  1  0
M  END
>  <Energy>  (272) 
306.66480123359418

>  <compound_id>  (272) 
5006

>  <target_id>  (272) 
1

>  <reference_id>  (272) 
13

>  <inspiration_ids>  (272) 
[39, 13]

>  <energy_score>  (272) 
229.97459553641283

>  <distance_score>  (272) 
10.720734125950598

>  <path>  (272) 
/opt/xchem-fragalysis-2/maxwin/BulkDock/SCRATCH/511018/C5006-P13/C5006-P13.minimised.mol

>  <scratch_subdir>  (272) 
/opt/xchem-fragalysis-2/maxwin/BulkDock/SCRATCH/511018/C5006-P13

>  <fragmenstein_runtime>  (272) 
27.318256378173828

>  <fragmenstein_outcome>  (272) 
too moved

>  <fragmenstein_mode>  (272) 
expansion

>  <fragmenstein_error>  (272) 


$$$$
C5008-P39
     RDKit          3D

 55 59  0  0  0  0  0  0  0  0999 V2000
   -5.9143  -11.6829   31.5480 O   0  0  0  0  0  0  0  0  0  0  0  0
   -4.9015  -11.8158   30.9541 C   0  0  0  0  0  0  0  0  0  0  0  0
   -5.0126  -12.9661   29.8339 C   0  0  0  0  0  0  0  0  0  0  0  0
   -6.3007  -14.2866   29.5841 N   0  0  0  0  0  0  0  0  0  0  0  0
   -5.6706  -15.9104   29.5479 C   0  0  0  0  0  0  0  0  0  0  0  0
   -6.3471  -17.3159   28.6655 C   0  0  0  0  0  0  0  0  0  0  0  0
   -8.1860  -17.9998   28.3012 C   0  0  0  0  0  0  0  0  0  0  0  0
   -9.2002  -19.8157   28.2486 C   0  0  0  0  0  0  0  0  0  0  0  0
   -9.6536  -20.9734   27.4967 C   0  0  0  0  0  0  0  0  0  0  0  0
  -11.1794  -21.3006   27.5072 N   0  0  0  0  0  0  0  0  0  0  0  0
  -11.6780  -21.1354   28.9049 C   0  0  0  0  0  0  0  0  0  0  0  0
  -12.4812  -22.0507   29.6721 C   0  0  0  0  0  0  0  0  0  0  0  0
  -12.3374  -23.4344   29.6112 C   0  0  0  0  0  0  0  0  0  0  0  0
  -11.2279  -23.9071   29.0080 C   0  0  0  0  0  0  0  0  0  0  0  0
  -10.2846  -22.9135   28.7448 C   0  0  0  0  0  0  0  0  0  0  0  0
  -10.3144  -21.1791   29.1179 C   0  0  0  0  0  0  0  0  0  0  0  0
   -8.3433  -16.2304   27.4931 C   0  0  0  0  0  0  0  0  0  0  0  0
   -7.5870  -14.5414   28.2260 C   0  0  0  0  0  0  0  0  0  0  0  0
   -3.4249  -10.9127   31.0275 N   0  0  0  0  0  0  0  0  0  0  0  0
   -2.9713   -9.5391   31.9636 C   0  0  0  0  0  0  0  0  0  0  0  0
   -3.5358   -8.9860   32.8034 O   0  0  0  0  0  0  0  0  0  0  0  0
   -1.6676   -9.1813   31.2984 N   0  0  0  0  0  0  0  0  0  0  0  0
   -0.8402   -8.0340   31.4420 C   0  0  0  0  0  0  0  0  0  0  0  0
   -0.9886   -7.1749   32.5538 C   0  0  0  0  0  0  0  0  0  0  0  0
   -0.7194   -5.7814   32.4862 C   0  0  0  0  0  0  0  0  0  0  0  0
   -0.3618   -5.2339   31.2735 C   0  0  0  0  0  0  0  0  0  0  0  0
   -0.2335   -6.0337   30.1709 C   0  0  0  0  0  0  0  0  0  0  0  0
   -0.4632   -7.4112   30.2289 C   0  0  0  0  0  0  0  0  0  0  0  0
   -0.0106   -5.3062   29.0368 O   0  0  0  0  0  0  0  0  0  0  0  0
   -0.0067   -3.9579   29.5550 C   0  0  0  0  0  0  0  0  0  0  0  0
   -0.2106   -3.9115   30.9866 O   0  0  0  0  0  0  0  0  0  0  0  0
   -5.2308  -12.2907   29.0225 H   0  0  0  0  0  0  0  0  0  0  0  0
   -4.0025  -13.3606   29.7232 H   0  0  0  0  0  0  0  0  0  0  0  0
   -5.7124  -16.1551   30.6000 H   0  0  0  0  0  0  0  0  0  0  0  0
   -4.5773  -16.0151   29.3989 H   0  0  0  0  0  0  0  0  0  0  0  0
   -5.5483  -17.8801   28.1510 H   0  0  0  0  0  0  0  0  0  0  0  0
   -6.0839  -17.8454   29.6018 H   0  0  0  0  0  0  0  0  0  0  0  0
   -8.4627  -18.0769   27.3055 H   0  0  0  0  0  0  0  0  0  0  0  0
   -8.8708  -21.7519   27.3864 H   0  0  0  0  0  0  0  0  0  0  0  0
  -11.5911  -21.9926   26.8922 H   0  0  0  0  0  0  0  0  0  0  0  0
  -13.1931  -21.7150   30.4154 H   0  0  0  0  0  0  0  0  0  0  0  0
  -13.0443  -24.0927   30.1061 H   0  0  0  0  0  0  0  0  0  0  0  0
  -11.0290  -24.9578   28.8486 H   0  0  0  0  0  0  0  0  0  0  0  0
   -9.3581  -23.2865   28.2879 H   0  0  0  0  0  0  0  0  0  0  0  0
   -8.0618  -16.2154   26.4355 H   0  0  0  0  0  0  0  0  0  0  0  0
   -9.3720  -16.0812   27.0687 H   0  0  0  0  0  0  0  0  0  0  0  0
   -8.4567  -14.0701   28.6690 H   0  0  0  0  0  0  0  0  0  0  0  0
   -7.3931  -13.9078   27.3519 H   0  0  0  0  0  0  0  0  0  0  0  0
   -2.7095  -11.2470   30.4072 H   0  0  0  0  0  0  0  0  0  0  0  0
   -1.4059   -9.9197   30.6575 H   0  0  0  0  0  0  0  0  0  0  0  0
   -1.3916   -7.5743   33.4841 H   0  0  0  0  0  0  0  0  0  0  0  0
   -0.8804   -5.1504   33.3557 H   0  0  0  0  0  0  0  0  0  0  0  0
   -0.4567   -7.9657   29.2944 H   0  0  0  0  0  0  0  0  0  0  0  0
   -0.8041   -3.3873   29.0660 H   0  0  0  0  0  0  0  0  0  0  0  0
    0.9586   -3.4946   29.3220 H   0  0  0  0  0  0  0  0  0  0  0  0
  1  2  2  0
  2  3  1  0
  3  4  1  0
  4  5  1  0
  5  6  1  0
  6  7  1  0
  7  8  1  0
  8  9  2  0
  9 10  1  0
 10 11  1  0
 11 12  2  0
 12 13  1  0
 13 14  2  0
 14 15  1  0
 15 16  2  0
  7 17  1  0
 17 18  1  0
  2 19  1  0
 19 20  1  0
 20 21  2  0
 20 22  1  0
 22 23  1  0
 23 24  2  0
 24 25  1  0
 25 26  2  0
 26 27  1  0
 27 28  2  0
 27 29  1  0
 29 30  1  0
 30 31  1  0
 18  4  1  0
 28 23  1  0
 16  8  1  0
 31 26  1  0
 16 11  1  0
  3 32  1  0
  3 33  1  0
  5 34  1  0
  5 35  1  0
  6 36  1  0
  6 37  1  0
  7 38  1  0
  9 39  1  0
 10 40  1  0
 12 41  1  0
 13 42  1  0
 14 43  1  0
 15 44  1  0
 17 45  1  0
 17 46  1  0
 18 47  1  0
 18 48  1  0
 19 49  1  0
 22 50  1  0
 24 51  1  0
 25 52  1  0
 28 53  1  0
 30 54  1  0
 30 55  1  0
M  END
>  <Energy>  (273) 
1015.7982711451887

>  <compound_id>  (273) 
5008

>  <target_id>  (273) 
1

>  <reference_id>  (273) 
39

>  <inspiration_ids>  (273) 
[39, 13]

>  <energy_score>  (273) 
768.1084378982476

>  <distance_score>  (273) 
6.95603188080841

>  <path>  (273) 
/opt/xchem-fragalysis-2/maxwin/BulkDock/SCRATCH/511018/C5008-P39/C5008-P39.minimised.mol

>  <scratch_subdir>  (273) 
/opt/xchem-fragalysis-2/maxwin/BulkDock/SCRATCH/511018/C5008-P39

>  <fragmenstein_runtime>  (273) 
27.56014919281006

>  <fragmenstein_outcome>  (273) 
too moved

>  <fragmenstein_mode>  (273) 
expansion

>  <fragmenstein_error>  (273) 


$$$$
C5008-P13
     RDKit          3D

 55 59  0  0  0  0  0  0  0  0999 V2000
  -11.3064   -9.5589   33.8504 O   0  0  0  0  0  0  0  0  0  0  0  0
  -10.2262   -9.2935   33.4123 C   0  0  0  0  0  0  0  0  0  0  0  0
   -9.1154  -10.7503   32.3937 C   0  0  0  0  0  0  0  0  0  0  0  0
   -8.1623  -12.3225   32.9505 N   0  0  0  0  0  0  0  0  0  0  0  0
   -6.9728  -12.7675   31.8816 C   0  0  0  0  0  0  0  0  0  0  0  0
   -7.1044  -14.0021   30.3520 C   0  0  0  0  0  0  0  0  0  0  0  0
   -8.9220  -14.8057   29.6876 C   0  0  0  0  0  0  0  0  0  0  0  0
   -8.7943  -16.9128   28.7782 C   0  0  0  0  0  0  0  0  0  0  0  0
   -8.6487  -16.5681   27.4282 C   0  0  0  0  0  0  0  0  0  0  0  0
   -9.5470  -17.4676   27.0771 N   0  0  0  0  0  0  0  0  0  0  0  0
   -9.3759  -18.7521   28.0289 C   0  0  0  0  0  0  0  0  0  0  0  0
   -9.7393  -20.6076   27.8157 C   0  0  0  0  0  0  0  0  0  0  0  0
  -10.5933  -21.7952   28.3400 C   0  0  0  0  0  0  0  0  0  0  0  0
  -11.2683  -21.4701   29.3907 C   0  0  0  0  0  0  0  0  0  0  0  0
  -10.9412  -20.1393   29.6975 C   0  0  0  0  0  0  0  0  0  0  0  0
  -10.5812  -18.2648   29.1558 C   0  0  0  0  0  0  0  0  0  0  0  0
   -8.6496  -14.6844   31.7227 C   0  0  0  0  0  0  0  0  0  0  0  0
   -9.0607  -13.7221   32.8513 C   0  0  0  0  0  0  0  0  0  0  0  0
   -9.4095   -7.8535   33.3573 N   0  0  0  0  0  0  0  0  0  0  0  0
   -9.8247   -6.3583   33.7643 C   0  0  0  0  0  0  0  0  0  0  0  0
  -10.7806   -5.9297   34.2711 O   0  0  0  0  0  0  0  0  0  0  0  0
   -8.6037   -5.6509   33.1942 N   0  0  0  0  0  0  0  0  0  0  0  0
   -8.2434   -4.2921   33.2019 C   0  0  0  0  0  0  0  0  0  0  0  0
   -8.8063   -3.2370   33.9077 C   0  0  0  0  0  0  0  0  0  0  0  0
   -8.1207   -1.9931   33.9913 C   0  0  0  0  0  0  0  0  0  0  0  0
   -6.8697   -1.8612   33.4116 C   0  0  0  0  0  0  0  0  0  0  0  0
   -6.3409   -2.8807   32.6752 C   0  0  0  0  0  0  0  0  0  0  0  0
   -7.0353   -4.0565   32.4955 C   0  0  0  0  0  0  0  0  0  0  0  0
   -5.0659   -2.6339   32.2675 O   0  0  0  0  0  0  0  0  0  0  0  0
   -4.7948   -1.4367   33.0265 C   0  0  0  0  0  0  0  0  0  0  0  0
   -5.9996   -0.8182   33.5312 O   0  0  0  0  0  0  0  0  0  0  0  0
   -9.7493  -11.1645   31.7081 H   0  0  0  0  0  0  0  0  0  0  0  0
   -8.8554  -11.2083   33.3101 H   0  0  0  0  0  0  0  0  0  0  0  0
   -6.3707  -13.2048   32.6001 H   0  0  0  0  0  0  0  0  0  0  0  0
   -6.6095  -11.8137   31.6313 H   0  0  0  0  0  0  0  0  0  0  0  0
   -6.6113  -13.6947   29.4324 H   0  0  0  0  0  0  0  0  0  0  0  0
   -6.3172  -14.7474   30.6352 H   0  0  0  0  0  0  0  0  0  0  0  0
   -8.7862  -14.1183   28.8077 H   0  0  0  0  0  0  0  0  0  0  0  0
   -8.5281  -15.6402   26.8898 H   0  0  0  0  0  0  0  0  0  0  0  0
  -10.0352  -17.4609   26.1956 H   0  0  0  0  0  0  0  0  0  0  0  0
  -10.3431  -20.7227   26.8795 H   0  0  0  0  0  0  0  0  0  0  0  0
  -10.6724  -22.7673   27.8681 H   0  0  0  0  0  0  0  0  0  0  0  0
  -11.7395  -22.1714   30.0265 H   0  0  0  0  0  0  0  0  0  0  0  0
  -10.9948  -20.3234   30.8329 H   0  0  0  0  0  0  0  0  0  0  0  0
   -8.8926  -15.5951   32.3281 H   0  0  0  0  0  0  0  0  0  0  0  0
   -7.6305  -14.8158   31.8873 H   0  0  0  0  0  0  0  0  0  0  0  0
   -9.8694  -13.1685   32.6326 H   0  0  0  0  0  0  0  0  0  0  0  0
   -9.5656  -14.3466   33.5806 H   0  0  0  0  0  0  0  0  0  0  0  0
   -8.5057   -7.9327   33.0142 H   0  0  0  0  0  0  0  0  0  0  0  0
   -8.0018   -6.3216   32.7565 H   0  0  0  0  0  0  0  0  0  0  0  0
   -9.7434   -3.3717   34.4439 H   0  0  0  0  0  0  0  0  0  0  0  0
   -8.5464   -1.1793   34.5704 H   0  0  0  0  0  0  0  0  0  0  0  0
   -6.6004   -4.8262   31.8715 H   0  0  0  0  0  0  0  0  0  0  0  0
   -4.2556   -0.7192   32.4015 H   0  0  0  0  0  0  0  0  0  0  0  0
   -4.1476   -1.6931   33.8756 H   0  0  0  0  0  0  0  0  0  0  0  0
  1  2  2  0
  2  3  1  0
  3  4  1  0
  4  5  1  0
  5  6  1  0
  6  7  1  0
  7  8  1  0
  8  9  2  0
  9 10  1  0
 10 11  1  0
 11 12  2  0
 12 13  1  0
 13 14  2  0
 14 15  1  0
 15 16  2  0
  7 17  1  0
 17 18  1  0
  2 19  1  0
 19 20  1  0
 20 21  2  0
 20 22  1  0
 22 23  1  0
 23 24  2  0
 24 25  1  0
 25 26  2  0
 26 27  1  0
 27 28  2  0
 27 29  1  0
 29 30  1  0
 30 31  1  0
 18  4  1  0
 28 23  1  0
 16  8  1  0
 31 26  1  0
 16 11  1  0
  3 32  1  0
  3 33  1  0
  5 34  1  0
  5 35  1  0
  6 36  1  0
  6 37  1  0
  7 38  1  0
  9 39  1  0
 10 40  1  0
 12 41  1  0
 13 42  1  0
 14 43  1  0
 15 44  1  0
 17 45  1  0
 17 46  1  0
 18 47  1  0
 18 48  1  0
 19 49  1  0
 22 50  1  0
 24 51  1  0
 25 52  1  0
 28 53  1  0
 30 54  1  0
 30 55  1  0
M  END
>  <Energy>  (274) 
1467.5138544998085

>  <compound_id>  (274) 
5008

>  <target_id>  (274) 
1

>  <reference_id>  (274) 
13

>  <inspiration_ids>  (274) 
[39, 13]

>  <energy_score>  (274) 
1219.8240212528992

>  <distance_score>  (274) 
8.550599472724091

>  <path>  (274) 
/opt/xchem-fragalysis-2/maxwin/BulkDock/SCRATCH/511018/C5008-P13/C5008-P13.minimised.mol

>  <scratch_subdir>  (274) 
/opt/xchem-fragalysis-2/maxwin/BulkDock/SCRATCH/511018/C5008-P13

>  <fragmenstein_runtime>  (274) 
33.698564291000366

>  <fragmenstein_outcome>  (274) 
too moved

>  <fragmenstein_mode>  (274) 
expansion

>  <fragmenstein_error>  (274) 


$$$$
C5010-P39
     RDKit          3D

 47 51  0  0  0  0  0  0  0  0999 V2000
  -10.2906  -21.4955   28.2833 C   0  0  0  0  0  0  0  0  0  0  0  0
  -10.0207  -20.5198   29.0298 C   0  0  0  0  0  0  0  0  0  0  0  0
   -8.5044  -19.3366   28.4882 C   0  0  0  0  0  0  0  0  0  0  0  0
   -8.1389  -17.8809   28.1978 C   0  0  0  0  0  0  0  0  0  0  0  0
   -9.2429  -18.5279   27.5458 C   0  0  0  0  0  0  0  0  0  0  0  0
   -9.8220  -20.5112   27.4898 C   0  0  0  0  0  0  0  0  0  0  0  0
   -9.7211  -17.1204   26.5827 C   0  0  0  0  0  0  0  0  0  0  0  0
   -8.8397  -16.1174   26.6763 C   0  0  0  0  0  0  0  0  0  0  0  0
   -8.1158  -16.3353   27.8345 N   0  0  0  0  0  0  0  0  0  0  0  0
   -7.4705  -14.6520   28.3001 C   0  0  0  0  0  0  0  0  0  0  0  0
   -6.2429  -14.0257   29.7341 C   0  0  0  0  0  0  0  0  0  0  0  0
   -4.8155  -12.8951   30.0210 N   0  0  0  0  0  0  0  0  0  0  0  0
   -3.4663  -12.1983   29.4498 C   0  0  0  0  0  0  0  0  0  0  0  0
   -1.8508  -12.1530   29.3298 C   0  0  0  0  0  0  0  0  0  0  0  0
   -1.1066  -13.2557   28.9596 C   0  0  0  0  0  0  0  0  0  0  0  0
    0.1756  -12.8572   28.7760 N   0  0  0  0  0  0  0  0  0  0  0  0
    0.4240  -11.5554   28.9374 N   0  0  0  0  0  0  0  0  0  0  0  0
   -0.7486  -10.9651   29.2576 C   0  0  0  0  0  0  0  0  0  0  0  0
   -0.6141   -9.3680   29.4392 C   0  0  0  0  0  0  0  0  0  0  0  0
   -0.8862   -8.6539   30.6635 C   0  0  0  0  0  0  0  0  0  0  0  0
   -0.7597   -7.2527   30.8465 C   0  0  0  0  0  0  0  0  0  0  0  0
   -0.4695   -6.4887   29.7505 C   0  0  0  0  0  0  0  0  0  0  0  0
   -0.3428   -7.0728   28.5167 C   0  0  0  0  0  0  0  0  0  0  0  0
   -0.3063   -8.4839   28.3546 C   0  0  0  0  0  0  0  0  0  0  0  0
   -0.2347   -6.1147   27.5437 O   0  0  0  0  0  0  0  0  0  0  0  0
   -0.1241   -4.9059   28.3361 C   0  0  0  0  0  0  0  0  0  0  0  0
   -0.3387   -5.1344   29.7379 O   0  0  0  0  0  0  0  0  0  0  0  0
  -10.9627  -22.3068   28.2062 H   0  0  0  0  0  0  0  0  0  0  0  0
  -10.5389  -20.4917   29.9995 H   0  0  0  0  0  0  0  0  0  0  0  0
   -7.7433  -20.0787   27.9926 H   0  0  0  0  0  0  0  0  0  0  0  0
  -10.5605  -20.8244   26.6777 H   0  0  0  0  0  0  0  0  0  0  0  0
  -10.3854  -17.1302   25.7305 H   0  0  0  0  0  0  0  0  0  0  0  0
   -8.6536  -15.2450   26.0875 H   0  0  0  0  0  0  0  0  0  0  0  0
   -8.4311  -14.2159   28.5942 H   0  0  0  0  0  0  0  0  0  0  0  0
   -7.3776  -14.1448   27.3202 H   0  0  0  0  0  0  0  0  0  0  0  0
   -5.7636  -14.9641   29.9781 H   0  0  0  0  0  0  0  0  0  0  0  0
   -6.4082  -13.2119   29.1281 H   0  0  0  0  0  0  0  0  0  0  0  0
   -5.0862  -12.3584   30.8428 H   0  0  0  0  0  0  0  0  0  0  0  0
   -3.6663  -11.8478   28.4694 H   0  0  0  0  0  0  0  0  0  0  0  0
   -3.3976  -11.4969   30.2675 H   0  0  0  0  0  0  0  0  0  0  0  0
   -1.4005  -14.2811   28.7842 H   0  0  0  0  0  0  0  0  0  0  0  0
    0.9548  -13.4450   28.5042 H   0  0  0  0  0  0  0  0  0  0  0  0
   -1.3301   -9.1882   31.5056 H   0  0  0  0  0  0  0  0  0  0  0  0
   -0.9195   -6.8010   31.8192 H   0  0  0  0  0  0  0  0  0  0  0  0
   -0.0525   -8.8848   27.3823 H   0  0  0  0  0  0  0  0  0  0  0  0
    0.8708   -4.4680   28.1965 H   0  0  0  0  0  0  0  0  0  0  0  0
   -0.8519   -4.1722   27.9958 H   0  0  0  0  0  0  0  0  0  0  0  0
  1  2  2  0
  2  3  1  0
  3  4  2  0
  4  5  1  0
  5  6  2  0
  5  7  1  0
  7  8  2  0
  8  9  1  0
  9 10  1  0
 10 11  1  0
 11 12  1  0
 12 13  1  0
 13 14  1  0
 14 15  2  0
 15 16  1  0
 16 17  1  0
 17 18  2  0
 18 19  1  0
 19 20  2  0
 20 21  1  0
 21 22  2  0
 22 23  1  0
 23 24  2  0
 23 25  1  0
 25 26  1  0
 26 27  1  0
  6  1  1  0
 18 14  1  0
 24 19  1  0
  9  4  1  0
 27 22  1  0
  1 28  1  0
  2 29  1  0
  3 30  1  0
  6 31  1  0
  7 32  1  0
  8 33  1  0
 10 34  1  0
 10 35  1  0
 11 36  1  0
 11 37  1  0
 12 38  1  0
 13 39  1  0
 13 40  1  0
 15 41  1  0
 16 42  1  0
 20 43  1  0
 21 44  1  0
 24 45  1  0
 26 46  1  0
 26 47  1  0
M  END
>  <Energy>  (275) 
1032.6801660329663

>  <compound_id>  (275) 
5010

>  <target_id>  (275) 
1

>  <reference_id>  (275) 
39

>  <inspiration_ids>  (275) 
[39, 13]

>  <energy_score>  (275) 
933.4584775784183

>  <distance_score>  (275) 
8.421232725233885

>  <path>  (275) 
/opt/xchem-fragalysis-2/maxwin/BulkDock/SCRATCH/511018/C5010-P39/C5010-P39.minimised.mol

>  <scratch_subdir>  (275) 
/opt/xchem-fragalysis-2/maxwin/BulkDock/SCRATCH/511018/C5010-P39

>  <fragmenstein_runtime>  (275) 
20.555395364761353

>  <fragmenstein_outcome>  (275) 
too moved

>  <fragmenstein_mode>  (275) 
expansion

>  <fragmenstein_error>  (275) 


$$$$
C5010-P13
     RDKit          3D

 47 51  0  0  0  0  0  0  0  0999 V2000
   -9.7055  -19.0301   33.0336 C   0  0  0  0  0  0  0  0  0  0  0  0
  -10.6752  -19.5760   31.4828 C   0  0  0  0  0  0  0  0  0  0  0  0
  -10.7297  -18.3933   29.7166 C   0  0  0  0  0  0  0  0  0  0  0  0
   -8.7302  -17.9702   29.2605 C   0  0  0  0  0  0  0  0  0  0  0  0
   -7.5521  -18.3426   30.8206 C   0  0  0  0  0  0  0  0  0  0  0  0
   -7.9002  -18.5776   32.6267 C   0  0  0  0  0  0  0  0  0  0  0  0
   -6.0802  -18.0037   30.4990 C   0  0  0  0  0  0  0  0  0  0  0  0
   -6.0269  -17.4263   29.2219 C   0  0  0  0  0  0  0  0  0  0  0  0
   -7.5851  -16.8654   28.3343 N   0  0  0  0  0  0  0  0  0  0  0  0
   -7.6558  -14.9545   28.3876 C   0  0  0  0  0  0  0  0  0  0  0  0
   -6.6384  -13.8115   29.5941 C   0  0  0  0  0  0  0  0  0  0  0  0
   -5.4151  -12.3618   29.7239 N   0  0  0  0  0  0  0  0  0  0  0  0
   -6.0101  -11.3301   31.1826 C   0  0  0  0  0  0  0  0  0  0  0  0
   -5.1951  -10.7521   32.7772 C   0  0  0  0  0  0  0  0  0  0  0  0
   -5.8717  -11.2147   33.9265 C   0  0  0  0  0  0  0  0  0  0  0  0
   -5.2129  -10.8089   35.0260 N   0  0  0  0  0  0  0  0  0  0  0  0
   -4.1440  -10.0723   34.7756 N   0  0  0  0  0  0  0  0  0  0  0  0
   -3.9980  -10.0098   33.4316 C   0  0  0  0  0  0  0  0  0  0  0  0
   -2.7729   -9.1754   33.0716 C   0  0  0  0  0  0  0  0  0  0  0  0
   -2.7101   -8.5276   31.8643 C   0  0  0  0  0  0  0  0  0  0  0  0
   -1.7207   -7.6031   31.4413 C   0  0  0  0  0  0  0  0  0  0  0  0
   -0.9032   -7.1028   32.3967 C   0  0  0  0  0  0  0  0  0  0  0  0
   -0.9647   -7.6195   33.6604 C   0  0  0  0  0  0  0  0  0  0  0  0
   -1.8236   -8.6847   34.0057 C   0  0  0  0  0  0  0  0  0  0  0  0
   -0.1634   -6.9077   34.5035 O   0  0  0  0  0  0  0  0  0  0  0  0
    0.2827   -5.8316   33.6383 C   0  0  0  0  0  0  0  0  0  0  0  0
   -0.0927   -6.0250   32.2635 O   0  0  0  0  0  0  0  0  0  0  0  0
   -9.6829  -19.5470   33.9976 H   0  0  0  0  0  0  0  0  0  0  0  0
  -10.9893  -20.6244   31.2198 H   0  0  0  0  0  0  0  0  0  0  0  0
  -10.8517  -19.8091   29.5044 H   0  0  0  0  0  0  0  0  0  0  0  0
   -7.0869  -18.6636   33.3376 H   0  0  0  0  0  0  0  0  0  0  0  0
   -5.2486  -18.3039   31.1242 H   0  0  0  0  0  0  0  0  0  0  0  0
   -5.2043  -17.7525   28.5605 H   0  0  0  0  0  0  0  0  0  0  0  0
   -8.2163  -14.6197   27.5044 H   0  0  0  0  0  0  0  0  0  0  0  0
   -6.6214  -15.2221   28.5301 H   0  0  0  0  0  0  0  0  0  0  0  0
   -6.0023  -14.5347   30.0984 H   0  0  0  0  0  0  0  0  0  0  0  0
   -6.7817  -13.3382   28.6224 H   0  0  0  0  0  0  0  0  0  0  0  0
   -4.4418  -12.6439   29.7068 H   0  0  0  0  0  0  0  0  0  0  0  0
   -6.6928  -12.0569   31.6791 H   0  0  0  0  0  0  0  0  0  0  0  0
   -6.5128  -10.5382   30.6078 H   0  0  0  0  0  0  0  0  0  0  0  0
   -6.7757  -11.8031   34.0167 H   0  0  0  0  0  0  0  0  0  0  0  0
   -5.4522  -10.9936   35.9949 H   0  0  0  0  0  0  0  0  0  0  0  0
   -3.6362   -8.6132   31.3239 H   0  0  0  0  0  0  0  0  0  0  0  0
   -1.7108   -7.1800   30.4471 H   0  0  0  0  0  0  0  0  0  0  0  0
   -1.8402   -9.0322   35.0360 H   0  0  0  0  0  0  0  0  0  0  0  0
   -0.1462   -4.8890   33.9991 H   0  0  0  0  0  0  0  0  0  0  0  0
    1.3749   -5.7710   33.6996 H   0  0  0  0  0  0  0  0  0  0  0  0
  1  2  2  0
  2  3  1  0
  3  4  2  0
  4  5  1  0
  5  6  2  0
  5  7  1  0
  7  8  2  0
  8  9  1  0
  9 10  1  0
 10 11  1  0
 11 12  1  0
 12 13  1  0
 13 14  1  0
 14 15  2  0
 15 16  1  0
 16 17  1  0
 17 18  2  0
 18 19  1  0
 19 20  2  0
 20 21  1  0
 21 22  2  0
 22 23  1  0
 23 24  2  0
 23 25  1  0
 25 26  1  0
 26 27  1  0
  6  1  1  0
 18 14  1  0
 24 19  1  0
  9  4  1  0
 27 22  1  0
  1 28  1  0
  2 29  1  0
  3 30  1  0
  6 31  1  0
  7 32  1  0
  8 33  1  0
 10 34  1  0
 10 35  1  0
 11 36  1  0
 11 37  1  0
 12 38  1  0
 13 39  1  0
 13 40  1  0
 15 41  1  0
 16 42  1  0
 20 43  1  0
 21 44  1  0
 24 45  1  0
 26 46  1  0
 26 47  1  0
M  END
>  <Energy>  (276) 
1379.8781231017281

>  <compound_id>  (276) 
5010

>  <target_id>  (276) 
1

>  <reference_id>  (276) 
13

>  <inspiration_ids>  (276) 
[39, 13]

>  <energy_score>  (276) 
1280.6564346472126

>  <distance_score>  (276) 
9.383838029627032

>  <path>  (276) 
/opt/xchem-fragalysis-2/maxwin/BulkDock/SCRATCH/511018/C5010-P13/C5010-P13.minimised.mol

>  <scratch_subdir>  (276) 
/opt/xchem-fragalysis-2/maxwin/BulkDock/SCRATCH/511018/C5010-P13

>  <fragmenstein_runtime>  (276) 
23.16695809364319

>  <fragmenstein_outcome>  (276) 
too moved

>  <fragmenstein_mode>  (276) 
expansion

>  <fragmenstein_error>  (276) 


$$$$
C5011-P39
     RDKit          3D

 33 36  0  0  0  0  0  0  0  0999 V2000
   -6.5754  -10.8632   24.9967 O   0  0  0  0  0  0  0  0  0  0  0  0
   -7.1172  -10.5248   26.0133 C   0  0  0  0  0  0  0  0  0  0  0  0
   -6.5844   -9.2572   27.3130 N   0  0  0  0  0  0  0  0  0  0  0  0
   -4.9966   -8.1528   27.4739 C   0  0  0  0  0  0  0  0  0  0  0  0
   -4.6664   -7.8223   28.7472 C   0  0  0  0  0  0  0  0  0  0  0  0
   -3.0421   -7.2629   29.3916 C   0  0  0  0  0  0  0  0  0  0  0  0
   -1.8390   -6.8830   28.7701 C   0  0  0  0  0  0  0  0  0  0  0  0
   -2.0535   -6.7989   27.4871 C   0  0  0  0  0  0  0  0  0  0  0  0
   -3.3727   -7.4507   27.0041 C   0  0  0  0  0  0  0  0  0  0  0  0
   -1.0504   -6.1634   26.8378 O   0  0  0  0  0  0  0  0  0  0  0  0
   -0.4315   -5.5442   28.0048 C   0  0  0  0  0  0  0  0  0  0  0  0
   -0.7122   -6.3074   29.2049 O   0  0  0  0  0  0  0  0  0  0  0  0
   -8.6321  -11.5849   26.2821 C   0  0  0  0  0  0  0  0  0  0  0  0
   -8.5604  -13.1812   27.0821 C   0  0  0  0  0  0  0  0  0  0  0  0
   -9.6160  -14.1254   26.9103 C   0  0  0  0  0  0  0  0  0  0  0  0
  -10.8980  -13.7233   26.4693 C   0  0  0  0  0  0  0  0  0  0  0  0
  -12.2066  -14.1970   26.7212 C   0  0  0  0  0  0  0  0  0  0  0  0
  -13.0665  -13.5886   25.8459 C   0  0  0  0  0  0  0  0  0  0  0  0
  -12.3336  -12.6592   25.1616 N   0  0  0  0  0  0  0  0  0  0  0  0
  -11.0617  -12.5732   25.6980 C   0  0  0  0  0  0  0  0  0  0  0  0
  -10.0313  -11.5887   25.4645 C   0  0  0  0  0  0  0  0  0  0  0  0
   -7.2146   -9.2555   28.1005 H   0  0  0  0  0  0  0  0  0  0  0  0
   -5.4607   -8.2165   29.3632 H   0  0  0  0  0  0  0  0  0  0  0  0
   -2.8980   -7.3449   30.5011 H   0  0  0  0  0  0  0  0  0  0  0  0
   -2.8132   -7.8180   26.1241 H   0  0  0  0  0  0  0  0  0  0  0  0
    0.6377   -5.4404   27.8780 H   0  0  0  0  0  0  0  0  0  0  0  0
   -0.8144   -4.5229   28.1355 H   0  0  0  0  0  0  0  0  0  0  0  0
   -7.5766  -13.5346   27.3608 H   0  0  0  0  0  0  0  0  0  0  0  0
   -9.3887  -15.1817   26.9107 H   0  0  0  0  0  0  0  0  0  0  0  0
  -12.4904  -14.8804   27.5023 H   0  0  0  0  0  0  0  0  0  0  0  0
  -14.1325  -13.6901   25.6915 H   0  0  0  0  0  0  0  0  0  0  0  0
  -12.7121  -12.0064   24.4894 H   0  0  0  0  0  0  0  0  0  0  0  0
  -10.2057  -10.9660   24.6009 H   0  0  0  0  0  0  0  0  0  0  0  0
  1  2  2  0
  2  3  1  0
  3  4  1  0
  4  5  2  0
  5  6  1  0
  6  7  2  0
  7  8  1  0
  8  9  2  0
  8 10  1  0
 10 11  1  0
 11 12  1  0
  2 13  1  0
 13 14  2  0
 14 15  1  0
 15 16  2  0
 16 17  1  0
 17 18  2  0
 18 19  1  0
 19 20  1  0
 20 21  2  0
  9  4  1  0
 21 13  1  0
 12  7  1  0
 20 16  1  0
  3 22  1  0
  5 23  1  0
  6 24  1  0
  9 25  1  0
 11 26  1  0
 11 27  1  0
 14 28  1  0
 15 29  1  0
 17 30  1  0
 18 31  1  0
 19 32  1  0
 21 33  1  0
M  END
>  <Energy>  (277) 
556.95039764730939

>  <compound_id>  (277) 
5011

>  <target_id>  (277) 
1

>  <reference_id>  (277) 
39

>  <inspiration_ids>  (277) 
[39, 13]

>  <energy_score>  (277) 
482.9155620418294

>  <distance_score>  (277) 
10.291160964465064

>  <path>  (277) 
/opt/xchem-fragalysis-2/maxwin/BulkDock/SCRATCH/511018/C5011-P39/C5011-P39.minimised.mol

>  <scratch_subdir>  (277) 
/opt/xchem-fragalysis-2/maxwin/BulkDock/SCRATCH/511018/C5011-P39

>  <fragmenstein_runtime>  (277) 
16.56250834465027

>  <fragmenstein_outcome>  (277) 
too moved

>  <fragmenstein_mode>  (277) 
expansion

>  <fragmenstein_error>  (277) 


$$$$
C5011-P13
     RDKit          3D

 33 36  0  0  0  0  0  0  0  0999 V2000
   -1.6752  -14.7368   27.4579 O   0  0  0  0  0  0  0  0  0  0  0  0
   -2.0826  -14.7689   28.5966 C   0  0  0  0  0  0  0  0  0  0  0  0
   -2.4991  -13.6372   29.5333 N   0  0  0  0  0  0  0  0  0  0  0  0
   -2.4305  -12.0327   29.3518 C   0  0  0  0  0  0  0  0  0  0  0  0
   -2.6562  -11.8297   28.1078 C   0  0  0  0  0  0  0  0  0  0  0  0
   -1.7476  -10.8648   27.9729 C   0  0  0  0  0  0  0  0  0  0  0  0
   -0.7695   -9.7209   28.8591 C   0  0  0  0  0  0  0  0  0  0  0  0
   -0.7070   -9.7444   30.1341 C   0  0  0  0  0  0  0  0  0  0  0  0
   -1.4466  -10.8360   30.3377 C   0  0  0  0  0  0  0  0  0  0  0  0
    0.1344   -8.9587   30.7619 O   0  0  0  0  0  0  0  0  0  0  0  0
    0.8367   -8.4580   29.6085 C   0  0  0  0  0  0  0  0  0  0  0  0
    0.1697   -8.8526   28.3760 O   0  0  0  0  0  0  0  0  0  0  0  0
   -2.3288  -16.1870   29.1818 C   0  0  0  0  0  0  0  0  0  0  0  0
   -1.8968  -17.3105   28.4548 C   0  0  0  0  0  0  0  0  0  0  0  0
   -2.3620  -18.6196   28.7230 C   0  0  0  0  0  0  0  0  0  0  0  0
   -3.3298  -18.8120   29.7205 C   0  0  0  0  0  0  0  0  0  0  0  0
   -3.9966  -19.9346   30.2738 C   0  0  0  0  0  0  0  0  0  0  0  0
   -4.8318  -19.4609   31.2591 C   0  0  0  0  0  0  0  0  0  0  0  0
   -4.7906  -18.1036   31.2387 N   0  0  0  0  0  0  0  0  0  0  0  0
   -3.7837  -17.6932   30.4077 C   0  0  0  0  0  0  0  0  0  0  0  0
   -3.2762  -16.4046   30.2017 C   0  0  0  0  0  0  0  0  0  0  0  0
   -2.6990  -14.0102   30.4244 H   0  0  0  0  0  0  0  0  0  0  0  0
   -3.0138  -12.3177   27.2231 H   0  0  0  0  0  0  0  0  0  0  0  0
   -1.8244  -10.6515   26.9148 H   0  0  0  0  0  0  0  0  0  0  0  0
   -1.1337  -11.1197   31.3464 H   0  0  0  0  0  0  0  0  0  0  0  0
    0.9175   -7.3711   29.6899 H   0  0  0  0  0  0  0  0  0  0  0  0
    1.8512   -8.8773   29.5999 H   0  0  0  0  0  0  0  0  0  0  0  0
   -1.2154  -17.1690   27.6156 H   0  0  0  0  0  0  0  0  0  0  0  0
   -1.9924  -19.4569   28.1384 H   0  0  0  0  0  0  0  0  0  0  0  0
   -3.8555  -20.9712   30.0028 H   0  0  0  0  0  0  0  0  0  0  0  0
   -5.5006  -19.9308   31.9620 H   0  0  0  0  0  0  0  0  0  0  0  0
   -5.3375  -17.5078   31.8438 H   0  0  0  0  0  0  0  0  0  0  0  0
   -3.7285  -15.6043   30.7639 H   0  0  0  0  0  0  0  0  0  0  0  0
  1  2  2  0
  2  3  1  0
  3  4  1  0
  4  5  2  0
  5  6  1  0
  6  7  2  0
  7  8  1  0
  8  9  2  0
  8 10  1  0
 10 11  1  0
 11 12  1  0
  2 13  1  0
 13 14  2  0
 14 15  1  0
 15 16  2  0
 16 17  1  0
 17 18  2  0
 18 19  1  0
 19 20  1  0
 20 21  2  0
  9  4  1  0
 21 13  1  0
 12  7  1  0
 20 16  1  0
  3 22  1  0
  5 23  1  0
  6 24  1  0
  9 25  1  0
 11 26  1  0
 11 27  1  0
 14 28  1  0
 15 29  1  0
 17 30  1  0
 18 31  1  0
 19 32  1  0
 21 33  1  0
M  END
>  <Energy>  (278) 
233.64290695956163

>  <compound_id>  (278) 
5011

>  <target_id>  (278) 
1

>  <reference_id>  (278) 
13

>  <inspiration_ids>  (278) 
[39, 13]

>  <energy_score>  (278) 
159.60807135408788

>  <distance_score>  (278) 
11.10611444510688

>  <path>  (278) 
/opt/xchem-fragalysis-2/maxwin/BulkDock/SCRATCH/511018/C5011-P13/C5011-P13.minimised.mol

>  <scratch_subdir>  (278) 
/opt/xchem-fragalysis-2/maxwin/BulkDock/SCRATCH/511018/C5011-P13

>  <fragmenstein_runtime>  (278) 
20.75869083404541

>  <fragmenstein_outcome>  (278) 
too moved

>  <fragmenstein_mode>  (278) 
expansion

>  <fragmenstein_error>  (278) 


$$$$
C5012-P39
     RDKit          3D

 40 44  0  0  0  0  0  0  0  0999 V2000
   -8.9638  -12.9181   27.0239 O   0  0  0  0  0  0  0  0  0  0  0  0
   -7.9278  -13.4602   26.9960 C   0  0  0  0  0  0  0  0  0  0  0  0
   -6.4299  -12.1172   26.7500 N   0  0  0  0  0  0  0  0  0  0  0  0
   -6.3864  -10.1315   26.6996 C   0  0  0  0  0  0  0  0  0  0  0  0
   -7.4449   -9.3430   27.3609 N   0  0  0  0  0  0  0  0  0  0  0  0
   -7.1337   -9.2881   28.7390 N   0  0  0  0  0  0  0  0  0  0  0  0
   -6.0092   -8.6573   28.6754 C   0  0  0  0  0  0  0  0  0  0  0  0
   -5.4537   -8.5697   27.3740 C   0  0  0  0  0  0  0  0  0  0  0  0
   -3.7395   -7.5260   27.5130 C   0  0  0  0  0  0  0  0  0  0  0  0
   -2.9188   -7.2550   28.8912 C   0  0  0  0  0  0  0  0  0  0  0  0
   -1.5640   -7.0015   29.4280 C   0  0  0  0  0  0  0  0  0  0  0  0
   -0.7856   -6.4003   28.5650 C   0  0  0  0  0  0  0  0  0  0  0  0
   -1.1948   -6.4318   27.2718 C   0  0  0  0  0  0  0  0  0  0  0  0
   -2.4359   -7.0551   26.7260 C   0  0  0  0  0  0  0  0  0  0  0  0
   -0.3614   -5.6075   26.5979 O   0  0  0  0  0  0  0  0  0  0  0  0
    0.1665   -4.7885   27.6938 C   0  0  0  0  0  0  0  0  0  0  0  0
    0.1757   -5.5220   28.9048 O   0  0  0  0  0  0  0  0  0  0  0  0
   -8.2739  -15.4564   27.0596 C   0  0  0  0  0  0  0  0  0  0  0  0
   -7.8170  -16.4198   28.0643 C   0  0  0  0  0  0  0  0  0  0  0  0
   -8.0235  -18.0393   28.6205 C   0  0  0  0  0  0  0  0  0  0  0  0
   -8.6282  -19.3201   28.3908 C   0  0  0  0  0  0  0  0  0  0  0  0
  -10.0995  -20.5168   29.1858 C   0  0  0  0  0  0  0  0  0  0  0  0
  -10.4831  -21.3370   28.2480 C   0  0  0  0  0  0  0  0  0  0  0  0
   -9.7637  -20.4637   27.4288 N   0  0  0  0  0  0  0  0  0  0  0  0
   -9.2491  -18.5274   27.5445 C   0  0  0  0  0  0  0  0  0  0  0  0
   -9.2070  -16.8268   26.7336 C   0  0  0  0  0  0  0  0  0  0  0  0
   -5.5927  -12.5809   26.8188 H   0  0  0  0  0  0  0  0  0  0  0  0
   -8.3043   -9.8260   27.3485 H   0  0  0  0  0  0  0  0  0  0  0  0
   -5.5274   -8.3059   29.5128 H   0  0  0  0  0  0  0  0  0  0  0  0
   -3.4847   -7.4746   29.7658 H   0  0  0  0  0  0  0  0  0  0  0  0
   -1.3564   -7.0024   30.4938 H   0  0  0  0  0  0  0  0  0  0  0  0
   -2.2000   -7.1837   25.6871 H   0  0  0  0  0  0  0  0  0  0  0  0
   -0.4545   -3.8928   27.8363 H   0  0  0  0  0  0  0  0  0  0  0  0
    1.1791   -4.4498   27.4598 H   0  0  0  0  0  0  0  0  0  0  0  0
   -6.8981  -16.0539   28.5873 H   0  0  0  0  0  0  0  0  0  0  0  0
   -7.4875  -18.3562   29.5268 H   0  0  0  0  0  0  0  0  0  0  0  0
  -10.3997  -20.6002   30.2387 H   0  0  0  0  0  0  0  0  0  0  0  0
  -11.1111  -22.1760   27.9891 H   0  0  0  0  0  0  0  0  0  0  0  0
  -10.2097  -20.5835   26.5509 H   0  0  0  0  0  0  0  0  0  0  0  0
   -9.9503  -16.7260   25.9414 H   0  0  0  0  0  0  0  0  0  0  0  0
  1  2  2  0
  2  3  1  0
  3  4  1  0
  4  5  1  0
  5  6  1  0
  6  7  2  0
  7  8  1  0
  8  9  1  0
  9 10  2  0
 10 11  1  0
 11 12  2  0
 12 13  1  0
 13 14  2  0
 13 15  1  0
 15 16  1  0
 16 17  1  0
  2 18  1  0
 18 19  2  0
 19 20  1  0
 20 21  2  0
 21 22  1  0
 22 23  2  0
 23 24  1  0
 24 25  1  0
 25 26  2  0
  8  4  2  0
 14  9  1  0
 26 18  1  0
 17 12  1  0
 25 21  1  0
  3 27  1  0
  5 28  1  0
  7 29  1  0
 10 30  1  0
 11 31  1  0
 14 32  1  0
 16 33  1  0
 16 34  1  0
 19 35  1  0
 20 36  1  0
 22 37  1  0
 23 38  1  0
 24 39  1  0
 26 40  1  0
M  END
>  <Energy>  (279) 
1468.9901984723545

>  <compound_id>  (279) 
5012

>  <target_id>  (279) 
1

>  <reference_id>  (279) 
39

>  <inspiration_ids>  (279) 
[39, 13]

>  <energy_score>  (279) 
1341.8206279258936

>  <distance_score>  (279) 
7.430771606526719

>  <path>  (279) 
/opt/xchem-fragalysis-2/maxwin/BulkDock/SCRATCH/511018/C5012-P39/C5012-P39.minimised.mol

>  <scratch_subdir>  (279) 
/opt/xchem-fragalysis-2/maxwin/BulkDock/SCRATCH/511018/C5012-P39

>  <fragmenstein_runtime>  (279) 
18.570695638656616

>  <fragmenstein_outcome>  (279) 
too moved

>  <fragmenstein_mode>  (279) 
expansion

>  <fragmenstein_error>  (279) 


$$$$
C5012-P13
     RDKit          3D

 40 44  0  0  0  0  0  0  0  0999 V2000
   -0.2601  -15.0039   37.1356 O   0  0  0  0  0  0  0  0  0  0  0  0
   -1.2478  -14.8581   36.4665 C   0  0  0  0  0  0  0  0  0  0  0  0
   -1.4545  -14.1200   35.2227 N   0  0  0  0  0  0  0  0  0  0  0  0
   -0.5133  -13.4248   34.3658 C   0  0  0  0  0  0  0  0  0  0  0  0
    0.7257  -14.0912   34.4255 N   0  0  0  0  0  0  0  0  0  0  0  0
    0.5100  -15.2233   33.7128 N   0  0  0  0  0  0  0  0  0  0  0  0
   -0.4029  -14.7872   32.8230 C   0  0  0  0  0  0  0  0  0  0  0  0
   -0.5277  -13.1805   32.7786 C   0  0  0  0  0  0  0  0  0  0  0  0
   -1.2901  -11.5628   31.4555 C   0  0  0  0  0  0  0  0  0  0  0  0
   -1.8640   -9.9586   32.0327 C   0  0  0  0  0  0  0  0  0  0  0  0
   -1.7365   -8.4301   32.1150 C   0  0  0  0  0  0  0  0  0  0  0  0
   -1.0889   -7.8699   31.0805 C   0  0  0  0  0  0  0  0  0  0  0  0
   -0.6128   -8.7851   30.1726 C   0  0  0  0  0  0  0  0  0  0  0  0
   -0.7142  -10.4120   30.5359 C   0  0  0  0  0  0  0  0  0  0  0  0
    0.4348   -8.1701   29.4940 O   0  0  0  0  0  0  0  0  0  0  0  0
    0.5178   -6.8836   30.2220 C   0  0  0  0  0  0  0  0  0  0  0  0
   -0.6724   -6.6047   30.9550 O   0  0  0  0  0  0  0  0  0  0  0  0
   -2.4285  -15.6890   36.9872 C   0  0  0  0  0  0  0  0  0  0  0  0
   -2.1318  -17.0467   37.2498 C   0  0  0  0  0  0  0  0  0  0  0  0
   -3.1007  -17.9867   37.6585 C   0  0  0  0  0  0  0  0  0  0  0  0
   -4.4384  -17.5786   37.7758 C   0  0  0  0  0  0  0  0  0  0  0  0
   -5.6552  -18.2662   38.0659 C   0  0  0  0  0  0  0  0  0  0  0  0
   -6.6738  -17.3479   37.9829 C   0  0  0  0  0  0  0  0  0  0  0  0
   -6.1115  -16.1276   37.6982 N   0  0  0  0  0  0  0  0  0  0  0  0
   -4.7421  -16.2339   37.5313 C   0  0  0  0  0  0  0  0  0  0  0  0
   -3.7505  -15.2682   37.1718 C   0  0  0  0  0  0  0  0  0  0  0  0
   -2.4026  -14.2835   34.8929 H   0  0  0  0  0  0  0  0  0  0  0  0
    1.2992  -14.1922   35.2559 H   0  0  0  0  0  0  0  0  0  0  0  0
   -0.8111  -15.5196   32.1307 H   0  0  0  0  0  0  0  0  0  0  0  0
   -2.7168   -9.7937   31.3447 H   0  0  0  0  0  0  0  0  0  0  0  0
   -2.1216   -7.9040   32.9760 H   0  0  0  0  0  0  0  0  0  0  0  0
   -0.1684   -9.9264   31.4039 H   0  0  0  0  0  0  0  0  0  0  0  0
    1.3444   -6.9333   30.9379 H   0  0  0  0  0  0  0  0  0  0  0  0
    0.7413   -6.0503   29.5519 H   0  0  0  0  0  0  0  0  0  0  0  0
   -1.1068  -17.3980   37.1202 H   0  0  0  0  0  0  0  0  0  0  0  0
   -2.8174  -19.0209   37.8314 H   0  0  0  0  0  0  0  0  0  0  0  0
   -5.7645  -19.3211   38.2813 H   0  0  0  0  0  0  0  0  0  0  0  0
   -7.7421  -17.4502   38.1161 H   0  0  0  0  0  0  0  0  0  0  0  0
   -6.6337  -15.2700   37.6140 H   0  0  0  0  0  0  0  0  0  0  0  0
   -3.9936  -14.2213   37.0634 H   0  0  0  0  0  0  0  0  0  0  0  0
  1  2  2  0
  2  3  1  0
  3  4  1  0
  4  5  1  0
  5  6  1  0
  6  7  2  0
  7  8  1  0
  8  9  1  0
  9 10  2  0
 10 11  1  0
 11 12  2  0
 12 13  1  0
 13 14  2  0
 13 15  1  0
 15 16  1  0
 16 17  1  0
  2 18  1  0
 18 19  2  0
 19 20  1  0
 20 21  2  0
 21 22  1  0
 22 23  2  0
 23 24  1  0
 24 25  1  0
 25 26  2  0
  8  4  2  0
 14  9  1  0
 26 18  1  0
 17 12  1  0
 25 21  1  0
  3 27  1  0
  5 28  1  0
  7 29  1  0
 10 30  1  0
 11 31  1  0
 14 32  1  0
 16 33  1  0
 16 34  1  0
 19 35  1  0
 20 36  1  0
 22 37  1  0
 23 38  1  0
 24 39  1  0
 26 40  1  0
M  END
>  <Energy>  (280) 
761.99799113630081

>  <compound_id>  (280) 
5012

>  <target_id>  (280) 
1

>  <reference_id>  (280) 
13

>  <inspiration_ids>  (280) 
[39, 13]

>  <energy_score>  (280) 
634.8284205898339

>  <distance_score>  (280) 
11.966650962692228

>  <path>  (280) 
/opt/xchem-fragalysis-2/maxwin/BulkDock/SCRATCH/511018/C5012-P13/C5012-P13.minimised.mol

>  <scratch_subdir>  (280) 
/opt/xchem-fragalysis-2/maxwin/BulkDock/SCRATCH/511018/C5012-P13

>  <fragmenstein_runtime>  (280) 
35.64262866973877

>  <fragmenstein_outcome>  (280) 
too moved

>  <fragmenstein_mode>  (280) 
expansion

>  <fragmenstein_error>  (280) 


$$$$
C5013-P39
     RDKit          3D

 36 39  0  0  0  0  0  0  0  0999 V2000
  -11.6957  -22.5346   26.1982 C   0  0  0  0  0  0  0  0  0  0  0  0
  -11.3078  -21.3809   27.1511 N   0  0  0  0  0  0  0  0  0  0  0  0
  -11.5939  -21.9247   28.4867 C   0  0  0  0  0  0  0  0  0  0  0  0
  -10.2701  -22.1708   28.5223 C   0  0  0  0  0  0  0  0  0  0  0  0
   -9.9686  -20.7874   28.5171 C   0  0  0  0  0  0  0  0  0  0  0  0
   -8.4724  -19.5695   28.5548 C   0  0  0  0  0  0  0  0  0  0  0  0
   -7.8552  -17.8615   28.3807 C   0  0  0  0  0  0  0  0  0  0  0  0
   -8.4564  -16.8478   27.5399 C   0  0  0  0  0  0  0  0  0  0  0  0
   -8.2847  -15.1835   26.4503 C   0  0  0  0  0  0  0  0  0  0  0  0
   -8.6823  -15.3967   25.3324 O   0  0  0  0  0  0  0  0  0  0  0  0
   -7.4894  -13.5346   26.8807 N   0  0  0  0  0  0  0  0  0  0  0  0
   -7.0155  -12.0060   25.7741 C   0  0  0  0  0  0  0  0  0  0  0  0
   -6.7854  -10.8421   26.2545 C   0  0  0  0  0  0  0  0  0  0  0  0
   -6.6070   -9.4842   27.6050 C   0  0  0  0  0  0  0  0  0  0  0  0
   -5.8379   -8.6016   27.4012 C   0  0  0  0  0  0  0  0  0  0  0  0
   -7.0541   -8.8393   26.6798 C   0  0  0  0  0  0  0  0  0  0  0  0
   -7.1071  -10.4341   25.5557 C   0  0  0  0  0  0  0  0  0  0  0  0
   -6.6329   -7.1829   26.0317 O   0  0  0  0  0  0  0  0  0  0  0  0
   -6.0304   -6.0159   27.1564 C   0  0  0  0  0  0  0  0  0  0  0  0
   -5.2016   -7.5204   27.8972 O   0  0  0  0  0  0  0  0  0  0  0  0
   -9.2332  -18.3841   27.2933 C   0  0  0  0  0  0  0  0  0  0  0  0
   -9.8434  -20.4011   27.3123 C   0  0  0  0  0  0  0  0  0  0  0  0
  -10.9697  -23.3550   26.2293 H   0  0  0  0  0  0  0  0  0  0  0  0
  -12.5888  -23.0280   26.6035 H   0  0  0  0  0  0  0  0  0  0  0  0
  -11.9414  -22.1729   25.2033 H   0  0  0  0  0  0  0  0  0  0  0  0
  -12.4480  -22.5775   28.6001 H   0  0  0  0  0  0  0  0  0  0  0  0
   -9.7169  -23.0891   28.3533 H   0  0  0  0  0  0  0  0  0  0  0  0
   -9.6603  -20.2193   29.3181 H   0  0  0  0  0  0  0  0  0  0  0  0
   -6.7435  -17.9282   28.4417 H   0  0  0  0  0  0  0  0  0  0  0  0
   -7.3052  -13.5119   27.8674 H   0  0  0  0  0  0  0  0  0  0  0  0
   -8.2573  -11.1459   26.4497 H   0  0  0  0  0  0  0  0  0  0  0  0
   -6.9979   -9.5247   28.6736 H   0  0  0  0  0  0  0  0  0  0  0  0
   -7.2936  -10.3937   24.4325 H   0  0  0  0  0  0  0  0  0  0  0  0
   -6.2586   -5.6732   28.2233 H   0  0  0  0  0  0  0  0  0  0  0  0
   -7.1258   -5.6561   27.2133 H   0  0  0  0  0  0  0  0  0  0  0  0
   -7.7495  -18.7723   27.0759 H   0  0  0  0  0  0  0  0  0  0  0  0
  1  2  1  0
  2  3  1  0
  3  4  2  0
  4  5  1  0
  5  6  2  0
  6  7  1  0
  7  8  2  0
  8  9  1  0
  9 10  2  0
  9 11  1  0
 11 12  1  0
 12 13  2  0
 13 14  1  0
 14 15  2  0
 15 16  1  0
 16 17  2  0
 16 18  1  0
 18 19  1  0
 19 20  1  0
  8 21  1  0
 21 22  2  0
 22  2  1  0
 22  5  1  0
 17 12  1  0
 20 15  1  0
  1 23  1  0
  1 24  1  0
  1 25  1  0
  3 26  1  0
  4 27  1  0
  6 28  1  0
  7 29  1  0
 11 30  1  0
 13 31  1  0
 14 32  1  0
 17 33  1  0
 19 34  1  0
 19 35  1  0
 21 36  1  0
M  END
>  <Energy>  (281) 
2253.1463657851086

>  <compound_id>  (281) 
5013

>  <target_id>  (281) 
1

>  <reference_id>  (281) 
39

>  <inspiration_ids>  (281) 
[39, 13]

>  <energy_score>  (281) 
2171.4626727282744

>  <distance_score>  (281) 
9.15392374485152

>  <path>  (281) 
/opt/xchem-fragalysis-2/maxwin/BulkDock/SCRATCH/511018/C5013-P39/C5013-P39.minimised.mol

>  <scratch_subdir>  (281) 
/opt/xchem-fragalysis-2/maxwin/BulkDock/SCRATCH/511018/C5013-P39

>  <fragmenstein_runtime>  (281) 
15.735883235931396

>  <fragmenstein_outcome>  (281) 
too moved

>  <fragmenstein_mode>  (281) 
expansion

>  <fragmenstein_error>  (281) 


$$$$
C5013-P13
     RDKit          3D

 36 39  0  0  0  0  0  0  0  0999 V2000
   -1.5498  -17.5128   25.9621 C   0  0  0  0  0  0  0  0  0  0  0  0
   -2.6640  -17.6377   26.8743 N   0  0  0  0  0  0  0  0  0  0  0  0
   -3.5718  -18.6770   26.8676 C   0  0  0  0  0  0  0  0  0  0  0  0
   -4.5156  -18.4577   27.8455 C   0  0  0  0  0  0  0  0  0  0  0  0
   -4.2040  -17.1904   28.4676 C   0  0  0  0  0  0  0  0  0  0  0  0
   -4.6624  -16.5679   29.7687 C   0  0  0  0  0  0  0  0  0  0  0  0
   -3.9041  -15.4158   30.3805 C   0  0  0  0  0  0  0  0  0  0  0  0
   -2.8855  -14.4927   29.4756 C   0  0  0  0  0  0  0  0  0  0  0  0
   -3.2352  -12.5712   29.4834 C   0  0  0  0  0  0  0  0  0  0  0  0
   -4.2841  -12.0489   29.5413 O   0  0  0  0  0  0  0  0  0  0  0  0
   -2.0003  -12.0623   29.5150 N   0  0  0  0  0  0  0  0  0  0  0  0
   -1.3904  -10.3690   29.8024 C   0  0  0  0  0  0  0  0  0  0  0  0
   -0.3878   -9.6186   29.0547 C   0  0  0  0  0  0  0  0  0  0  0  0
    0.4322   -8.5055   29.4007 C   0  0  0  0  0  0  0  0  0  0  0  0
    0.1025   -7.8142   30.5079 C   0  0  0  0  0  0  0  0  0  0  0  0
   -0.8177   -8.3649   31.3233 C   0  0  0  0  0  0  0  0  0  0  0  0
   -1.4067   -9.6435   31.0586 C   0  0  0  0  0  0  0  0  0  0  0  0
   -1.1754   -7.4959   32.3169 O   0  0  0  0  0  0  0  0  0  0  0  0
   -0.3337   -6.3566   32.0129 C   0  0  0  0  0  0  0  0  0  0  0  0
    0.4867   -6.5649   30.8483 O   0  0  0  0  0  0  0  0  0  0  0  0
   -2.3413  -15.2678   28.2371 C   0  0  0  0  0  0  0  0  0  0  0  0
   -2.9476  -16.7073   27.8726 C   0  0  0  0  0  0  0  0  0  0  0  0
   -0.6390  -17.3556   26.5456 H   0  0  0  0  0  0  0  0  0  0  0  0
   -1.4556  -18.4272   25.3711 H   0  0  0  0  0  0  0  0  0  0  0  0
   -1.7394  -16.6604   25.3050 H   0  0  0  0  0  0  0  0  0  0  0  0
   -3.4617  -19.4995   26.1737 H   0  0  0  0  0  0  0  0  0  0  0  0
   -5.3221  -19.1209   28.1285 H   0  0  0  0  0  0  0  0  0  0  0  0
   -5.4099  -17.0886   30.3601 H   0  0  0  0  0  0  0  0  0  0  0  0
   -4.2986  -15.1433   31.3434 H   0  0  0  0  0  0  0  0  0  0  0  0
   -1.3379  -12.8230   29.3430 H   0  0  0  0  0  0  0  0  0  0  0  0
   -0.2596   -9.8571   28.0335 H   0  0  0  0  0  0  0  0  0  0  0  0
    1.1958   -8.1509   28.7179 H   0  0  0  0  0  0  0  0  0  0  0  0
   -2.1662   -9.8367   31.7689 H   0  0  0  0  0  0  0  0  0  0  0  0
    0.3150   -6.1612   32.8744 H   0  0  0  0  0  0  0  0  0  0  0  0
   -0.9744   -5.4834   31.8449 H   0  0  0  0  0  0  0  0  0  0  0  0
   -1.7250  -14.7984   27.4787 H   0  0  0  0  0  0  0  0  0  0  0  0
  1  2  1  0
  2  3  1  0
  3  4  2  0
  4  5  1  0
  5  6  2  0
  6  7  1  0
  7  8  2  0
  8  9  1  0
  9 10  2  0
  9 11  1  0
 11 12  1  0
 12 13  2  0
 13 14  1  0
 14 15  2  0
 15 16  1  0
 16 17  2  0
 16 18  1  0
 18 19  1  0
 19 20  1  0
  8 21  1  0
 21 22  2  0
 22  2  1  0
 22  5  1  0
 17 12  1  0
 20 15  1  0
  1 23  1  0
  1 24  1  0
  1 25  1  0
  3 26  1  0
  4 27  1  0
  6 28  1  0
  7 29  1  0
 11 30  1  0
 13 31  1  0
 14 32  1  0
 17 33  1  0
 19 34  1  0
 19 35  1  0
 21 36  1  0
M  END
>  <Energy>  (282) 
265.70915904291604

>  <compound_id>  (282) 
5013

>  <target_id>  (282) 
1

>  <reference_id>  (282) 
13

>  <inspiration_ids>  (282) 
[39, 13]

>  <energy_score>  (282) 
184.02546598605693

>  <distance_score>  (282) 
10.503132291562107

>  <path>  (282) 
/opt/xchem-fragalysis-2/maxwin/BulkDock/SCRATCH/511018/C5013-P13/C5013-P13.minimised.mol

>  <scratch_subdir>  (282) 
/opt/xchem-fragalysis-2/maxwin/BulkDock/SCRATCH/511018/C5013-P13

>  <fragmenstein_runtime>  (282) 
31.479522466659546

>  <fragmenstein_outcome>  (282) 
too moved

>  <fragmenstein_mode>  (282) 
expansion

>  <fragmenstein_error>  (282) 


$$$$
C5014-P39
     RDKit          3D

 48 52  0  0  0  0  0  0  0  0999 V2000
   -2.6081  -15.0594   29.2665 O   0  0  0  0  0  0  0  0  0  0  0  0
   -3.6775  -14.6392   29.6296 C   0  0  0  0  0  0  0  0  0  0  0  0
   -3.5956  -12.6380   29.9966 C   0  0  0  0  0  0  0  0  0  0  0  0
   -2.3497  -11.1916   30.4368 C   0  0  0  0  0  0  0  0  0  0  0  0
   -1.0506  -10.3786   29.9422 C   0  0  0  0  0  0  0  0  0  0  0  0
   -0.8301   -9.2488   30.7357 C   0  0  0  0  0  0  0  0  0  0  0  0
   -0.2729   -7.8663   30.5538 C   0  0  0  0  0  0  0  0  0  0  0  0
   -0.0304   -7.0330   31.6753 C   0  0  0  0  0  0  0  0  0  0  0  0
    0.2022   -5.6448   31.5523 C   0  0  0  0  0  0  0  0  0  0  0  0
    0.1693   -5.0849   30.2962 C   0  0  0  0  0  0  0  0  0  0  0  0
   -0.0373   -5.8675   29.1890 C   0  0  0  0  0  0  0  0  0  0  0  0
   -0.2325   -7.2481   29.2816 C   0  0  0  0  0  0  0  0  0  0  0  0
   -0.0940   -5.1216   28.0475 O   0  0  0  0  0  0  0  0  0  0  0  0
    0.1055   -3.7826   28.5704 C   0  0  0  0  0  0  0  0  0  0  0  0
    0.2755   -3.7617   30.0027 O   0  0  0  0  0  0  0  0  0  0  0  0
   -1.7896   -9.3167   31.6943 O   0  0  0  0  0  0  0  0  0  0  0  0
   -2.7290  -10.2687   31.4310 N   0  0  0  0  0  0  0  0  0  0  0  0
   -5.4113  -15.5264   29.7202 N   0  0  0  0  0  0  0  0  0  0  0  0
   -6.0014  -17.2952   29.1020 C   0  0  0  0  0  0  0  0  0  0  0  0
   -7.8905  -18.0700   28.3911 C   0  0  0  0  0  0  0  0  0  0  0  0
   -9.1108  -19.7463   28.2904 C   0  0  0  0  0  0  0  0  0  0  0  0
   -9.4872  -21.1081   27.5768 C   0  0  0  0  0  0  0  0  0  0  0  0
  -10.8371  -21.5253   27.5690 N   0  0  0  0  0  0  0  0  0  0  0  0
  -11.1751  -21.7293   28.8278 C   0  0  0  0  0  0  0  0  0  0  0  0
  -12.0867  -22.6766   29.3362 C   0  0  0  0  0  0  0  0  0  0  0  0
  -12.3047  -22.7427   30.6949 C   0  0  0  0  0  0  0  0  0  0  0  0
  -11.6094  -21.8793   31.4960 C   0  0  0  0  0  0  0  0  0  0  0  0
  -10.7088  -20.9433   30.9206 C   0  0  0  0  0  0  0  0  0  0  0  0
  -10.3964  -20.7381   29.4447 C   0  0  0  0  0  0  0  0  0  0  0  0
   -3.6249  -12.2314   29.0014 H   0  0  0  0  0  0  0  0  0  0  0  0
   -4.5815  -12.3249   30.3773 H   0  0  0  0  0  0  0  0  0  0  0  0
   -0.5790  -10.4574   28.9733 H   0  0  0  0  0  0  0  0  0  0  0  0
   -0.0748   -7.4595   32.6780 H   0  0  0  0  0  0  0  0  0  0  0  0
    0.3551   -5.0290   32.4330 H   0  0  0  0  0  0  0  0  0  0  0  0
   -0.4248   -7.8125   28.3763 H   0  0  0  0  0  0  0  0  0  0  0  0
    1.0015   -3.3563   28.1055 H   0  0  0  0  0  0  0  0  0  0  0  0
   -0.7603   -3.1644   28.3133 H   0  0  0  0  0  0  0  0  0  0  0  0
   -6.0873  -14.9144   30.1489 H   0  0  0  0  0  0  0  0  0  0  0  0
   -5.3883  -17.7887   28.4516 H   0  0  0  0  0  0  0  0  0  0  0  0
   -6.0350  -17.6845   30.0570 H   0  0  0  0  0  0  0  0  0  0  0  0
   -8.4334  -17.7431   29.1566 H   0  0  0  0  0  0  0  0  0  0  0  0
   -8.2176  -17.3968   27.5935 H   0  0  0  0  0  0  0  0  0  0  0  0
   -8.7067  -21.8851   27.4560 H   0  0  0  0  0  0  0  0  0  0  0  0
  -11.2923  -22.0542   26.8353 H   0  0  0  0  0  0  0  0  0  0  0  0
  -12.5921  -23.3706   28.6701 H   0  0  0  0  0  0  0  0  0  0  0  0
  -12.9942  -23.4692   31.1179 H   0  0  0  0  0  0  0  0  0  0  0  0
  -11.7394  -21.9164   32.5748 H   0  0  0  0  0  0  0  0  0  0  0  0
  -10.2117  -20.3868   31.7135 H   0  0  0  0  0  0  0  0  0  0  0  0
  1  2  2  0
  2  3  1  0
  3  4  1  0
  4  5  1  0
  5  6  2  0
  6  7  1  0
  7  8  2  0
  8  9  1  0
  9 10  2  0
 10 11  1  0
 11 12  2  0
 11 13  1  0
 13 14  1  0
 14 15  1  0
  6 16  1  0
 16 17  1  0
  2 18  1  0
 18 19  1  0
 19 20  1  0
 20 21  1  0
 21 22  2  0
 22 23  1  0
 23 24  1  0
 24 25  2  0
 25 26  1  0
 26 27  2  0
 27 28  1  0
 28 29  2  0
 17  4  2  0
 29 21  1  0
 12  7  1  0
 29 24  1  0
 15 10  1  0
  3 30  1  0
  3 31  1  0
  5 32  1  0
  8 33  1  0
  9 34  1  0
 12 35  1  0
 14 36  1  0
 14 37  1  0
 18 38  1  0
 19 39  1  0
 19 40  1  0
 20 41  1  0
 20 42  1  0
 22 43  1  0
 23 44  1  0
 25 45  1  0
 26 46  1  0
 27 47  1  0
 28 48  1  0
M  END
>  <Energy>  (283) 
830.05801859514702

>  <compound_id>  (283) 
5014

>  <target_id>  (283) 
1

>  <reference_id>  (283) 
39

>  <inspiration_ids>  (283) 
[39, 13]

>  <energy_score>  (283) 
746.5375441972603

>  <distance_score>  (283) 
6.3970569370461385

>  <path>  (283) 
/opt/xchem-fragalysis-2/maxwin/BulkDock/SCRATCH/511018/C5014-P39/C5014-P39.minimised.mol

>  <scratch_subdir>  (283) 
/opt/xchem-fragalysis-2/maxwin/BulkDock/SCRATCH/511018/C5014-P39

>  <fragmenstein_runtime>  (283) 
19.027002334594727

>  <fragmenstein_outcome>  (283) 
too moved

>  <fragmenstein_mode>  (283) 
expansion

>  <fragmenstein_error>  (283) 


$$$$
C5014-P13
     RDKit          3D

 48 52  0  0  0  0  0  0  0  0999 V2000
   -2.4230  -14.9544   29.3220 O   0  0  0  0  0  0  0  0  0  0  0  0
   -3.4007  -14.3647   29.7963 C   0  0  0  0  0  0  0  0  0  0  0  0
   -3.0586  -12.3507   29.8004 C   0  0  0  0  0  0  0  0  0  0  0  0
   -1.7148  -10.8630   30.0990 C   0  0  0  0  0  0  0  0  0  0  0  0
   -1.2216   -9.9495   31.3093 C   0  0  0  0  0  0  0  0  0  0  0  0
   -0.4792   -8.8695   30.8078 C   0  0  0  0  0  0  0  0  0  0  0  0
   -0.0091   -7.4936   31.1047 C   0  0  0  0  0  0  0  0  0  0  0  0
    1.2166   -7.0255   30.5541 C   0  0  0  0  0  0  0  0  0  0  0  0
    1.4983   -5.6518   30.3917 C   0  0  0  0  0  0  0  0  0  0  0  0
    0.5319   -4.7478   30.7631 C   0  0  0  0  0  0  0  0  0  0  0  0
   -0.6252   -5.1731   31.3665 C   0  0  0  0  0  0  0  0  0  0  0  0
   -0.9000   -6.5256   31.5892 C   0  0  0  0  0  0  0  0  0  0  0  0
   -1.4838   -4.1341   31.5980 O   0  0  0  0  0  0  0  0  0  0  0  0
   -0.7676   -3.0372   30.9767 C   0  0  0  0  0  0  0  0  0  0  0  0
    0.5602   -3.4044   30.5527 O   0  0  0  0  0  0  0  0  0  0  0  0
   -0.3470   -9.1126   29.4987 O   0  0  0  0  0  0  0  0  0  0  0  0
   -1.1462  -10.0973   29.0974 N   0  0  0  0  0  0  0  0  0  0  0  0
   -5.1362  -15.1141   30.2539 N   0  0  0  0  0  0  0  0  0  0  0  0
   -5.8703  -16.8863   29.9097 C   0  0  0  0  0  0  0  0  0  0  0  0
   -7.2846  -17.8465   28.5772 C   0  0  0  0  0  0  0  0  0  0  0  0
   -8.5801  -19.5370   28.4800 C   0  0  0  0  0  0  0  0  0  0  0  0
   -9.7764  -20.6015   27.9007 C   0  0  0  0  0  0  0  0  0  0  0  0
  -10.5887  -21.5094   28.6875 N   0  0  0  0  0  0  0  0  0  0  0  0
   -9.6277  -22.4338   28.3301 C   0  0  0  0  0  0  0  0  0  0  0  0
   -9.9324  -23.6933   27.9008 C   0  0  0  0  0  0  0  0  0  0  0  0
   -9.0475  -23.9464   26.9579 C   0  0  0  0  0  0  0  0  0  0  0  0
   -7.8215  -23.1013   26.8441 C   0  0  0  0  0  0  0  0  0  0  0  0
   -7.1710  -22.1793   27.6406 C   0  0  0  0  0  0  0  0  0  0  0  0
   -8.2063  -21.3801   27.8783 C   0  0  0  0  0  0  0  0  0  0  0  0
   -4.0264  -11.9063   29.5951 H   0  0  0  0  0  0  0  0  0  0  0  0
   -2.7134  -12.2899   28.7488 H   0  0  0  0  0  0  0  0  0  0  0  0
   -1.5624   -9.9547   32.3241 H   0  0  0  0  0  0  0  0  0  0  0  0
    1.9313   -7.7460   30.1545 H   0  0  0  0  0  0  0  0  0  0  0  0
    2.4154   -5.3230   29.9151 H   0  0  0  0  0  0  0  0  0  0  0  0
   -1.8446   -6.8314   32.0158 H   0  0  0  0  0  0  0  0  0  0  0  0
   -1.3389   -2.6918   30.1067 H   0  0  0  0  0  0  0  0  0  0  0  0
   -0.6919   -2.2188   31.7009 H   0  0  0  0  0  0  0  0  0  0  0  0
   -5.7737  -14.3774   30.5479 H   0  0  0  0  0  0  0  0  0  0  0  0
   -6.3318  -17.1025   30.8386 H   0  0  0  0  0  0  0  0  0  0  0  0
   -6.2466  -16.0988   29.2663 H   0  0  0  0  0  0  0  0  0  0  0  0
   -6.2284  -18.0343   28.1822 H   0  0  0  0  0  0  0  0  0  0  0  0
   -7.9091  -17.0560   28.0930 H   0  0  0  0  0  0  0  0  0  0  0  0
  -10.3384  -20.7090   26.9800 H   0  0  0  0  0  0  0  0  0  0  0  0
  -10.9311  -21.3674   29.6277 H   0  0  0  0  0  0  0  0  0  0  0  0
  -10.9503  -24.0130   27.8134 H   0  0  0  0  0  0  0  0  0  0  0  0
   -9.3360  -24.6018   26.1397 H   0  0  0  0  0  0  0  0  0  0  0  0
   -7.3116  -23.2138   25.8805 H   0  0  0  0  0  0  0  0  0  0  0  0
   -6.1521  -21.8628   27.5181 H   0  0  0  0  0  0  0  0  0  0  0  0
  1  2  2  0
  2  3  1  0
  3  4  1  0
  4  5  1  0
  5  6  2  0
  6  7  1  0
  7  8  2  0
  8  9  1  0
  9 10  2  0
 10 11  1  0
 11 12  2  0
 11 13  1  0
 13 14  1  0
 14 15  1  0
  6 16  1  0
 16 17  1  0
  2 18  1  0
 18 19  1  0
 19 20  1  0
 20 21  1  0
 21 22  2  0
 22 23  1  0
 23 24  1  0
 24 25  2  0
 25 26  1  0
 26 27  2  0
 27 28  1  0
 28 29  2  0
 17  4  2  0
 29 21  1  0
 12  7  1  0
 29 24  1  0
 15 10  1  0
  3 30  1  0
  3 31  1  0
  5 32  1  0
  8 33  1  0
  9 34  1  0
 12 35  1  0
 14 36  1  0
 14 37  1  0
 18 38  1  0
 19 39  1  0
 19 40  1  0
 20 41  1  0
 20 42  1  0
 22 43  1  0
 23 44  1  0
 25 45  1  0
 26 46  1  0
 27 47  1  0
 28 48  1  0
M  END
>  <Energy>  (284) 
1118.6963919366792

>  <compound_id>  (284) 
5014

>  <target_id>  (284) 
1

>  <reference_id>  (284) 
13

>  <inspiration_ids>  (284) 
[39, 13]

>  <energy_score>  (284) 
1035.1759175387858

>  <distance_score>  (284) 
6.818193388094065

>  <path>  (284) 
/opt/xchem-fragalysis-2/maxwin/BulkDock/SCRATCH/511018/C5014-P13/C5014-P13.minimised.mol

>  <scratch_subdir>  (284) 
/opt/xchem-fragalysis-2/maxwin/BulkDock/SCRATCH/511018/C5014-P13

>  <fragmenstein_runtime>  (284) 
20.379467487335205

>  <fragmenstein_outcome>  (284) 
too moved

>  <fragmenstein_mode>  (284) 
expansion

>  <fragmenstein_error>  (284) 


$$$$
C5015-P39
     RDKit          3D

 42 46  0  0  0  0  0  0  0  0999 V2000
   -0.6467   -5.8434   34.7179 O   0  0  0  0  0  0  0  0  0  0  0  0
   -0.3434   -4.7451   34.4842 C   0  0  0  0  0  0  0  0  0  0  0  0
    0.0306   -4.0800   33.1599 N   0  0  0  0  0  0  0  0  0  0  0  0
    0.0215   -4.5967   31.8215 C   0  0  0  0  0  0  0  0  0  0  0  0
   -0.4735   -3.4760   30.9568 C   0  0  0  0  0  0  0  0  0  0  0  0
    0.1561   -2.8765   29.8371 C   0  0  0  0  0  0  0  0  0  0  0  0
   -0.6398   -1.8015   29.5298 C   0  0  0  0  0  0  0  0  0  0  0  0
   -0.5839   -0.6680   28.6300 C   0  0  0  0  0  0  0  0  0  0  0  0
    0.5514    0.1696   28.5922 C   0  0  0  0  0  0  0  0  0  0  0  0
    0.5179    1.3890   27.9021 C   0  0  0  0  0  0  0  0  0  0  0  0
   -0.6557    1.7366   27.2695 C   0  0  0  0  0  0  0  0  0  0  0  0
   -1.7392    0.8957   27.2527 C   0  0  0  0  0  0  0  0  0  0  0  0
   -1.7272   -0.3169   27.9024 C   0  0  0  0  0  0  0  0  0  0  0  0
   -2.7850    1.4151   26.5581 O   0  0  0  0  0  0  0  0  0  0  0  0
   -2.3101    2.7539   26.3157 C   0  0  0  0  0  0  0  0  0  0  0  0
   -0.9012    2.8982   26.6068 O   0  0  0  0  0  0  0  0  0  0  0  0
   -1.7016   -1.7767   30.3885 O   0  0  0  0  0  0  0  0  0  0  0  0
   -1.6091   -2.8290   31.2735 N   0  0  0  0  0  0  0  0  0  0  0  0
   -0.3532   -3.6853   35.4619 C   0  0  0  0  0  0  0  0  0  0  0  0
    0.6028   -3.2705   36.3646 C   0  0  0  0  0  0  0  0  0  0  0  0
    0.1157   -2.0920   37.0000 C   0  0  0  0  0  0  0  0  0  0  0  0
    0.6253   -1.2354   37.9936 C   0  0  0  0  0  0  0  0  0  0  0  0
   -0.1395   -0.1400   38.4114 C   0  0  0  0  0  0  0  0  0  0  0  0
   -1.3912    0.1102   37.8522 C   0  0  0  0  0  0  0  0  0  0  0  0
   -1.9190   -0.7254   36.8637 C   0  0  0  0  0  0  0  0  0  0  0  0
   -1.1433   -1.8184   36.4620 C   0  0  0  0  0  0  0  0  0  0  0  0
   -1.4074   -2.8041   35.5438 N   0  0  0  0  0  0  0  0  0  0  0  0
    0.3214   -3.1238   33.3321 H   0  0  0  0  0  0  0  0  0  0  0  0
   -0.6335   -5.4708   31.7701 H   0  0  0  0  0  0  0  0  0  0  0  0
    1.0426   -4.8877   31.5601 H   0  0  0  0  0  0  0  0  0  0  0  0
    1.0905   -3.1453   29.3673 H   0  0  0  0  0  0  0  0  0  0  0  0
    1.4489   -0.0952   29.1470 H   0  0  0  0  0  0  0  0  0  0  0  0
    1.3740    2.0546   27.8937 H   0  0  0  0  0  0  0  0  0  0  0  0
   -2.5990   -0.9603   27.8786 H   0  0  0  0  0  0  0  0  0  0  0  0
   -2.8782    3.4589   26.9340 H   0  0  0  0  0  0  0  0  0  0  0  0
   -2.4728    2.9975   25.2604 H   0  0  0  0  0  0  0  0  0  0  0  0
    1.5591   -3.7471   36.5400 H   0  0  0  0  0  0  0  0  0  0  0  0
    1.5948   -1.4282   38.4443 H   0  0  0  0  0  0  0  0  0  0  0  0
    0.2496    0.5180   39.1852 H   0  0  0  0  0  0  0  0  0  0  0  0
   -1.9660    0.9682   38.1936 H   0  0  0  0  0  0  0  0  0  0  0  0
   -2.8940   -0.5296   36.4306 H   0  0  0  0  0  0  0  0  0  0  0  0
   -2.2528   -2.8915   34.9867 H   0  0  0  0  0  0  0  0  0  0  0  0
  1  2  2  0
  2  3  1  0
  3  4  1  0
  4  5  1  0
  5  6  1  0
  6  7  2  0
  7  8  1  0
  8  9  2  0
  9 10  1  0
 10 11  2  0
 11 12  1  0
 12 13  2  0
 12 14  1  0
 14 15  1  0
 15 16  1  0
  7 17  1  0
 17 18  1  0
  2 19  1  0
 19 20  2  0
 20 21  1  0
 21 22  2  0
 22 23  1  0
 23 24  2  0
 24 25  1  0
 25 26  2  0
 26 27  1  0
 18  5  2  0
 27 19  1  0
 13  8  1  0
 26 21  1  0
 16 11  1  0
  3 28  1  0
  4 29  1  0
  4 30  1  0
  6 31  1  0
  9 32  1  0
 10 33  1  0
 13 34  1  0
 15 35  1  0
 15 36  1  0
 20 37  1  0
 22 38  1  0
 23 39  1  0
 24 40  1  0
 25 41  1  0
 27 42  1  0
M  END
>  <Energy>  (285) 
27.219163571504609

>  <compound_id>  (285) 
5015

>  <target_id>  (285) 
1

>  <reference_id>  (285) 
39

>  <inspiration_ids>  (285) 
[39, 13]

>  <energy_score>  (285) 
-19.082768167627478

>  <distance_score>  (285) 
1.0073880815401877

>  <path>  (285) 
/opt/xchem-fragalysis-2/maxwin/BulkDock/SCRATCH/511018/C5015-P39/C5015-P39.minimised.mol

>  <scratch_subdir>  (285) 
/opt/xchem-fragalysis-2/maxwin/BulkDock/SCRATCH/511018/C5015-P39

>  <fragmenstein_runtime>  (285) 
2.7715373039245605

>  <fragmenstein_outcome>  (285) 
too moved

>  <fragmenstein_mode>  (285) 
expansion

>  <fragmenstein_error>  (285) 


$$$$
C5015-P13
     RDKit          3D

 42 46  0  0  0  0  0  0  0  0999 V2000
   -0.1587   -7.4286   33.1183 O   0  0  0  0  0  0  0  0  0  0  0  0
   -0.2301   -6.3168   33.4496 C   0  0  0  0  0  0  0  0  0  0  0  0
   -0.2332   -5.0316   32.6176 N   0  0  0  0  0  0  0  0  0  0  0  0
   -0.0545   -4.8333   31.2099 C   0  0  0  0  0  0  0  0  0  0  0  0
   -0.3802   -3.4395   30.8024 C   0  0  0  0  0  0  0  0  0  0  0  0
   -0.4584   -2.9529   29.4764 C   0  0  0  0  0  0  0  0  0  0  0  0
   -0.5963   -1.5995   29.6241 C   0  0  0  0  0  0  0  0  0  0  0  0
   -0.6598   -0.4669   28.7332 C   0  0  0  0  0  0  0  0  0  0  0  0
    0.2863    0.5759   28.8642 C   0  0  0  0  0  0  0  0  0  0  0  0
    0.1648    1.7508   28.1201 C   0  0  0  0  0  0  0  0  0  0  0  0
   -0.9222    1.8587   27.2839 C   0  0  0  0  0  0  0  0  0  0  0  0
   -1.8252    0.8335   27.1300 C   0  0  0  0  0  0  0  0  0  0  0  0
   -1.7028   -0.3576   27.8107 C   0  0  0  0  0  0  0  0  0  0  0  0
   -2.8333    1.1633   26.2807 O   0  0  0  0  0  0  0  0  0  0  0  0
   -2.5433    2.5533   26.0386 C   0  0  0  0  0  0  0  0  0  0  0  0
   -1.2495    2.9513   26.5447 O   0  0  0  0  0  0  0  0  0  0  0  0
   -0.7250   -1.2996   30.9490 O   0  0  0  0  0  0  0  0  0  0  0  0
   -0.5774   -2.4560   31.6978 N   0  0  0  0  0  0  0  0  0  0  0  0
   -0.3059   -5.9864   34.8663 C   0  0  0  0  0  0  0  0  0  0  0  0
    0.2451   -6.6931   35.9236 C   0  0  0  0  0  0  0  0  0  0  0  0
   -0.0425   -6.0033   37.1297 C   0  0  0  0  0  0  0  0  0  0  0  0
    0.2707   -6.2242   38.4838 C   0  0  0  0  0  0  0  0  0  0  0  0
   -0.1932   -5.3219   39.4473 C   0  0  0  0  0  0  0  0  0  0  0  0
   -0.9503   -4.2127   39.0763 C   0  0  0  0  0  0  0  0  0  0  0  0
   -1.2676   -3.9714   37.7366 C   0  0  0  0  0  0  0  0  0  0  0  0
   -0.8040   -4.8889   36.7877 C   0  0  0  0  0  0  0  0  0  0  0  0
   -0.9905   -4.9284   35.4251 N   0  0  0  0  0  0  0  0  0  0  0  0
   -0.2256   -4.2288   33.2359 H   0  0  0  0  0  0  0  0  0  0  0  0
   -0.6646   -5.5707   30.6836 H   0  0  0  0  0  0  0  0  0  0  0  0
    0.9939   -5.0554   30.9834 H   0  0  0  0  0  0  0  0  0  0  0  0
   -0.3562   -3.4932   28.5466 H   0  0  0  0  0  0  0  0  0  0  0  0
    1.1020    0.4840   29.5787 H   0  0  0  0  0  0  0  0  0  0  0  0
    0.8661    2.5693   28.2329 H   0  0  0  0  0  0  0  0  0  0  0  0
   -2.4289   -1.1508   27.6664 H   0  0  0  0  0  0  0  0  0  0  0  0
   -3.3163    3.1684   26.5128 H   0  0  0  0  0  0  0  0  0  0  0  0
   -2.5608    2.7329   24.9584 H   0  0  0  0  0  0  0  0  0  0  0  0
    0.8225   -7.6045   35.8255 H   0  0  0  0  0  0  0  0  0  0  0  0
    0.8606   -7.0859   38.7812 H   0  0  0  0  0  0  0  0  0  0  0  0
    0.0354   -5.4915   40.4966 H   0  0  0  0  0  0  0  0  0  0  0  0
   -1.3096   -3.5298   39.8429 H   0  0  0  0  0  0  0  0  0  0  0  0
   -1.8609   -3.1086   37.4533 H   0  0  0  0  0  0  0  0  0  0  0  0
   -1.6079   -4.3019   34.9194 H   0  0  0  0  0  0  0  0  0  0  0  0
  1  2  2  0
  2  3  1  0
  3  4  1  0
  4  5  1  0
  5  6  1  0
  6  7  2  0
  7  8  1  0
  8  9  2  0
  9 10  1  0
 10 11  2  0
 11 12  1  0
 12 13  2  0
 12 14  1  0
 14 15  1  0
 15 16  1  0
  7 17  1  0
 17 18  1  0
  2 19  1  0
 19 20  2  0
 20 21  1  0
 21 22  2  0
 22 23  1  0
 23 24  2  0
 24 25  1  0
 25 26  2  0
 26 27  1  0
 18  5  2  0
 27 19  1  0
 13  8  1  0
 26 21  1  0
 16 11  1  0
  3 28  1  0
  4 29  1  0
  4 30  1  0
  6 31  1  0
  9 32  1  0
 10 33  1  0
 13 34  1  0
 15 35  1  0
 15 36  1  0
 20 37  1  0
 22 38  1  0
 23 39  1  0
 24 40  1  0
 25 41  1  0
 27 42  1  0
M  END
>  <Energy>  (286) 
22.130296880491223

>  <compound_id>  (286) 
5015

>  <target_id>  (286) 
1

>  <reference_id>  (286) 
13

>  <inspiration_ids>  (286) 
[39, 13]

>  <energy_score>  (286) 
-24.17163485864225

>  <distance_score>  (286) 
0.9820072783363796

>  <path>  (286) 
/opt/xchem-fragalysis-2/maxwin/BulkDock/SCRATCH/511018/C5015-P13/C5015-P13.minimised.mol

>  <scratch_subdir>  (286) 
/opt/xchem-fragalysis-2/maxwin/BulkDock/SCRATCH/511018/C5015-P13

>  <fragmenstein_runtime>  (286) 
2.2649424076080322

>  <fragmenstein_outcome>  (286) 
acceptable

>  <fragmenstein_mode>  (286) 
expansion

>  <fragmenstein_error>  (286) 


$$$$
C5016-P39
     RDKit          3D

 43 47  0  0  0  0  0  0  0  0999 V2000
   -6.8249  -17.3021   28.2412 O   0  0  0  0  0  0  0  0  0  0  0  0
   -7.9754  -17.1528   27.9145 C   0  0  0  0  0  0  0  0  0  0  0  0
   -8.2335  -15.7898   27.7171 O   0  0  0  0  0  0  0  0  0  0  0  0
   -7.4804  -14.2676   28.4923 C   0  0  0  0  0  0  0  0  0  0  0  0
   -6.3383  -13.8277   30.0672 C   0  0  0  0  0  0  0  0  0  0  0  0
   -6.6674  -12.8833   31.5827 C   0  0  0  0  0  0  0  0  0  0  0  0
   -6.0080  -11.5660   31.5731 C   0  0  0  0  0  0  0  0  0  0  0  0
   -6.0793  -10.1931   32.3133 C   0  0  0  0  0  0  0  0  0  0  0  0
   -7.3068   -9.7784   32.8688 C   0  0  0  0  0  0  0  0  0  0  0  0
   -7.4611   -8.5388   33.5452 C   0  0  0  0  0  0  0  0  0  0  0  0
   -6.3743   -7.7006   33.6746 C   0  0  0  0  0  0  0  0  0  0  0  0
   -5.1501   -8.0821   33.2133 C   0  0  0  0  0  0  0  0  0  0  0  0
   -4.9862   -9.2857   32.5354 C   0  0  0  0  0  0  0  0  0  0  0  0
   -4.1817   -7.1604   33.4943 O   0  0  0  0  0  0  0  0  0  0  0  0
   -4.9420   -6.2061   34.2706 C   0  0  0  0  0  0  0  0  0  0  0  0
   -6.3580   -6.4656   34.2430 O   0  0  0  0  0  0  0  0  0  0  0  0
   -4.9967  -11.9177   30.6494 O   0  0  0  0  0  0  0  0  0  0  0  0
   -5.1851  -13.0349   29.8655 N   0  0  0  0  0  0  0  0  0  0  0  0
   -9.0438  -18.7342   27.9286 C   0  0  0  0  0  0  0  0  0  0  0  0
   -8.2016  -19.2130   28.6116 O   0  0  0  0  0  0  0  0  0  0  0  0
   -9.7633  -20.6565   27.9107 C   0  0  0  0  0  0  0  0  0  0  0  0
   -9.1861  -22.0770   27.7986 C   0  0  0  0  0  0  0  0  0  0  0  0
  -10.1442  -23.0860   27.8156 N   0  0  0  0  0  0  0  0  0  0  0  0
  -11.2676  -22.6652   28.4444 C   0  0  0  0  0  0  0  0  0  0  0  0
  -12.2659  -23.5072   28.9537 C   0  0  0  0  0  0  0  0  0  0  0  0
  -12.7218  -23.2208   30.2308 C   0  0  0  0  0  0  0  0  0  0  0  0
  -12.1891  -22.1556   30.9192 C   0  0  0  0  0  0  0  0  0  0  0  0
  -11.3033  -21.2748   30.2723 C   0  0  0  0  0  0  0  0  0  0  0  0
  -10.9389  -21.3795   28.8966 C   0  0  0  0  0  0  0  0  0  0  0  0
   -7.4084  -13.6432   27.5995 H   0  0  0  0  0  0  0  0  0  0  0  0
   -8.4555  -13.9956   28.8822 H   0  0  0  0  0  0  0  0  0  0  0  0
   -7.2447  -13.1931   32.4584 H   0  0  0  0  0  0  0  0  0  0  0  0
   -8.1885  -10.4063   32.7494 H   0  0  0  0  0  0  0  0  0  0  0  0
   -8.4336   -8.2472   33.9301 H   0  0  0  0  0  0  0  0  0  0  0  0
   -3.9795   -9.5128   32.1984 H   0  0  0  0  0  0  0  0  0  0  0  0
   -4.5955   -6.2480   35.3108 H   0  0  0  0  0  0  0  0  0  0  0  0
   -4.7594   -5.1959   33.8903 H   0  0  0  0  0  0  0  0  0  0  0  0
   -8.1800  -22.3879   27.5559 H   0  0  0  0  0  0  0  0  0  0  0  0
   -9.9501  -24.0500   27.5845 H   0  0  0  0  0  0  0  0  0  0  0  0
  -12.4747  -24.4768   28.5112 H   0  0  0  0  0  0  0  0  0  0  0  0
  -13.3787  -23.9105   30.7472 H   0  0  0  0  0  0  0  0  0  0  0  0
  -12.4121  -22.0277   31.9762 H   0  0  0  0  0  0  0  0  0  0  0  0
  -10.7645  -20.6203   30.9395 H   0  0  0  0  0  0  0  0  0  0  0  0
  1  2  2  0
  2  3  1  0
  3  4  1  0
  4  5  1  0
  5  6  1  0
  6  7  2  0
  7  8  1  0
  8  9  2  0
  9 10  1  0
 10 11  2  0
 11 12  1  0
 12 13  2  0
 12 14  1  0
 14 15  1  0
 15 16  1  0
  7 17  1  0
 17 18  1  0
  2 19  1  0
 19 20  2  0
 19 21  1  0
 21 22  2  0
 22 23  1  0
 23 24  1  0
 24 25  2  0
 25 26  1  0
 26 27  2  0
 27 28  1  0
 28 29  2  0
 18  5  2  0
 29 21  1  0
 13  8  1  0
 29 24  1  0
 16 11  1  0
  4 30  1  0
  4 31  1  0
  6 32  1  0
  9 33  1  0
 10 34  1  0
 13 35  1  0
 15 36  1  0
 15 37  1  0
 22 38  1  0
 23 39  1  0
 25 40  1  0
 26 41  1  0
 27 42  1  0
 28 43  1  0
M  END
>  <Energy>  (287) 
722.00819739267365

>  <compound_id>  (287) 
5016

>  <target_id>  (287) 
1

>  <reference_id>  (287) 
39

>  <inspiration_ids>  (287) 
[39, 13]

>  <energy_score>  (287) 
557.5793373814586

>  <distance_score>  (287) 
8.708087351664592

>  <path>  (287) 
/opt/xchem-fragalysis-2/maxwin/BulkDock/SCRATCH/511018/C5016-P39/C5016-P39.minimised.mol

>  <scratch_subdir>  (287) 
/opt/xchem-fragalysis-2/maxwin/BulkDock/SCRATCH/511018/C5016-P39

>  <fragmenstein_runtime>  (287) 
21.409574270248413

>  <fragmenstein_outcome>  (287) 
too moved

>  <fragmenstein_mode>  (287) 
expansion

>  <fragmenstein_error>  (287) 


$$$$
C5016-P13
     RDKit          3D

 43 47  0  0  0  0  0  0  0  0999 V2000
   -5.8767  -19.1894   25.8478 O   0  0  0  0  0  0  0  0  0  0  0  0
   -5.6844  -19.3119   27.0582 C   0  0  0  0  0  0  0  0  0  0  0  0
   -4.5761  -17.7689   27.7611 O   0  0  0  0  0  0  0  0  0  0  0  0
   -3.0368  -16.3059   27.6951 C   0  0  0  0  0  0  0  0  0  0  0  0
   -2.5248  -14.2514   27.0922 C   0  0  0  0  0  0  0  0  0  0  0  0
   -2.7355  -12.2135   27.3095 C   0  0  0  0  0  0  0  0  0  0  0  0
   -2.2599  -10.5624   26.4904 C   0  0  0  0  0  0  0  0  0  0  0  0
   -2.6139   -8.4288   26.2861 C   0  0  0  0  0  0  0  0  0  0  0  0
   -2.3033   -7.3326   27.7538 C   0  0  0  0  0  0  0  0  0  0  0  0
   -1.6832   -5.7237   28.4065 C   0  0  0  0  0  0  0  0  0  0  0  0
   -1.3245   -4.5665   27.6106 C   0  0  0  0  0  0  0  0  0  0  0  0
   -1.8558   -5.1416   26.2555 C   0  0  0  0  0  0  0  0  0  0  0  0
   -2.1878   -6.8630   25.6802 C   0  0  0  0  0  0  0  0  0  0  0  0
   -2.8268   -3.6385   25.6719 O   0  0  0  0  0  0  0  0  0  0  0  0
   -2.1941   -2.4652   26.8938 C   0  0  0  0  0  0  0  0  0  0  0  0
   -1.2037   -3.2085   27.8554 O   0  0  0  0  0  0  0  0  0  0  0  0
   -2.8608  -12.0746   25.6288 O   0  0  0  0  0  0  0  0  0  0  0  0
   -1.9661  -13.5329   25.9719 N   0  0  0  0  0  0  0  0  0  0  0  0
   -6.4310  -21.1420   27.6440 C   0  0  0  0  0  0  0  0  0  0  0  0
   -5.5757  -21.9926   27.3346 O   0  0  0  0  0  0  0  0  0  0  0  0
   -7.9452  -22.1567   27.8496 C   0  0  0  0  0  0  0  0  0  0  0  0
   -7.9492  -23.1374   26.9235 C   0  0  0  0  0  0  0  0  0  0  0  0
   -8.9695  -24.0847   26.8635 N   0  0  0  0  0  0  0  0  0  0  0  0
  -10.0812  -23.6899   27.4744 C   0  0  0  0  0  0  0  0  0  0  0  0
  -11.3314  -23.9105   26.9195 C   0  0  0  0  0  0  0  0  0  0  0  0
  -12.2171  -22.9029   27.1084 C   0  0  0  0  0  0  0  0  0  0  0  0
  -11.9846  -22.0157   28.1378 C   0  0  0  0  0  0  0  0  0  0  0  0
  -10.7965  -21.9508   28.8306 C   0  0  0  0  0  0  0  0  0  0  0  0
   -9.6648  -22.6247   28.2830 C   0  0  0  0  0  0  0  0  0  0  0  0
   -2.1339  -16.9117   27.6676 H   0  0  0  0  0  0  0  0  0  0  0  0
   -3.4369  -15.8427   28.5477 H   0  0  0  0  0  0  0  0  0  0  0  0
   -3.1318  -11.9714   28.3018 H   0  0  0  0  0  0  0  0  0  0  0  0
   -1.9433   -7.8417   28.6815 H   0  0  0  0  0  0  0  0  0  0  0  0
   -1.1139   -5.8297   29.3646 H   0  0  0  0  0  0  0  0  0  0  0  0
   -1.9455   -6.7423   24.5919 H   0  0  0  0  0  0  0  0  0  0  0  0
   -3.0816   -2.1230   27.4587 H   0  0  0  0  0  0  0  0  0  0  0  0
   -1.8282   -1.5240   26.4926 H   0  0  0  0  0  0  0  0  0  0  0  0
   -7.2898  -23.1275   26.0701 H   0  0  0  0  0  0  0  0  0  0  0  0
   -9.0369  -24.6834   26.0612 H   0  0  0  0  0  0  0  0  0  0  0  0
  -11.5054  -24.6995   26.2087 H   0  0  0  0  0  0  0  0  0  0  0  0
  -13.1232  -22.8801   26.5203 H   0  0  0  0  0  0  0  0  0  0  0  0
  -12.7332  -21.3129   28.4563 H   0  0  0  0  0  0  0  0  0  0  0  0
  -10.8007  -21.1795   29.5880 H   0  0  0  0  0  0  0  0  0  0  0  0
  1  2  2  0
  2  3  1  0
  3  4  1  0
  4  5  1  0
  5  6  1  0
  6  7  2  0
  7  8  1  0
  8  9  2  0
  9 10  1  0
 10 11  2  0
 11 12  1  0
 12 13  2  0
 12 14  1  0
 14 15  1  0
 15 16  1  0
  7 17  1  0
 17 18  1  0
  2 19  1  0
 19 20  2  0
 19 21  1  0
 21 22  2  0
 22 23  1  0
 23 24  1  0
 24 25  2  0
 25 26  1  0
 26 27  2  0
 27 28  1  0
 28 29  2  0
 18  5  2  0
 29 21  1  0
 13  8  1  0
 29 24  1  0
 16 11  1  0
  4 30  1  0
  4 31  1  0
  6 32  1  0
  9 33  1  0
 10 34  1  0
 13 35  1  0
 15 36  1  0
 15 37  1  0
 22 38  1  0
 23 39  1  0
 25 40  1  0
 26 41  1  0
 27 42  1  0
 28 43  1  0
M  END
>  <Energy>  (288) 
2028.9843099348871

>  <compound_id>  (288) 
5016

>  <target_id>  (288) 
1

>  <reference_id>  (288) 
13

>  <inspiration_ids>  (288) 
[39, 13]

>  <energy_score>  (288) 
1864.5554499237146

>  <distance_score>  (288) 
5.296364154603441

>  <path>  (288) 
/opt/xchem-fragalysis-2/maxwin/BulkDock/SCRATCH/511018/C5016-P13/C5016-P13.minimised.mol

>  <scratch_subdir>  (288) 
/opt/xchem-fragalysis-2/maxwin/BulkDock/SCRATCH/511018/C5016-P13

>  <fragmenstein_runtime>  (288) 
27.50343894958496

>  <fragmenstein_outcome>  (288) 
too moved

>  <fragmenstein_mode>  (288) 
expansion

>  <fragmenstein_error>  (288) 


$$$$
C5017-P39
     RDKit          3D

 52 56  0  0  0  0  0  0  0  0999 V2000
   -5.5418  -11.6507   31.3566 O   0  0  0  0  0  0  0  0  0  0  0  0
   -5.2913  -12.6667   30.7081 C   0  0  0  0  0  0  0  0  0  0  0  0
   -3.7267  -12.4076   29.7066 C   0  0  0  0  0  0  0  0  0  0  0  0
   -2.6270  -11.2718   30.2927 O   0  0  0  0  0  0  0  0  0  0  0  0
   -1.1328  -11.0573   30.2574 C   0  0  0  0  0  0  0  0  0  0  0  0
   -0.5394   -9.6546   29.9397 C   0  0  0  0  0  0  0  0  0  0  0  0
   -0.5098   -8.4699   30.7648 C   0  0  0  0  0  0  0  0  0  0  0  0
   -0.0913   -7.4443   29.9345 C   0  0  0  0  0  0  0  0  0  0  0  0
   -0.0210   -5.9694   30.0292 C   0  0  0  0  0  0  0  0  0  0  0  0
   -0.0439   -5.3205   31.2887 C   0  0  0  0  0  0  0  0  0  0  0  0
   -0.1122   -3.9164   31.4083 C   0  0  0  0  0  0  0  0  0  0  0  0
   -0.1571   -3.1667   30.2569 C   0  0  0  0  0  0  0  0  0  0  0  0
   -0.1070   -3.7725   29.0296 C   0  0  0  0  0  0  0  0  0  0  0  0
   -0.0393   -5.1527   28.8812 C   0  0  0  0  0  0  0  0  0  0  0  0
   -0.1672   -2.8679   28.0221 O   0  0  0  0  0  0  0  0  0  0  0  0
   -0.3060   -1.6309   28.7403 C   0  0  0  0  0  0  0  0  0  0  0  0
   -0.2746   -1.8134   30.1740 O   0  0  0  0  0  0  0  0  0  0  0  0
    0.2674   -8.0123   28.7422 O   0  0  0  0  0  0  0  0  0  0  0  0
    0.0347   -9.3836   28.7603 N   0  0  0  0  0  0  0  0  0  0  0  0
   -6.1680  -14.2321   30.8104 N   0  0  0  0  0  0  0  0  0  0  0  0
   -7.5809  -14.8256   32.0095 C   0  0  0  0  0  0  0  0  0  0  0  0
   -7.3375  -16.8603   32.5623 C   0  0  0  0  0  0  0  0  0  0  0  0
   -7.7242  -18.2091   31.0427 C   0  0  0  0  0  0  0  0  0  0  0  0
   -8.1074  -18.9758   29.1629 C   0  0  0  0  0  0  0  0  0  0  0  0
   -9.7414  -20.3120   29.4330 N   0  0  0  0  0  0  0  0  0  0  0  0
  -10.1507  -20.5118   31.1893 C   0  0  0  0  0  0  0  0  0  0  0  0
  -11.2104  -21.3065   31.6709 C   0  0  0  0  0  0  0  0  0  0  0  0
  -11.7868  -20.9443   32.8806 C   0  0  0  0  0  0  0  0  0  0  0  0
  -11.3023  -19.8346   33.6030 C   0  0  0  0  0  0  0  0  0  0  0  0
  -10.0055  -19.1536   33.3622 C   0  0  0  0  0  0  0  0  0  0  0  0
   -9.1885  -19.3884   32.2249 C   0  0  0  0  0  0  0  0  0  0  0  0
   -3.1406  -13.3074   29.5449 H   0  0  0  0  0  0  0  0  0  0  0  0
   -3.9547  -11.9838   28.7706 H   0  0  0  0  0  0  0  0  0  0  0  0
   -0.5345  -11.8776   29.8787 H   0  0  0  0  0  0  0  0  0  0  0  0
   -0.7955  -11.0764   31.2978 H   0  0  0  0  0  0  0  0  0  0  0  0
   -0.8850   -8.3758   31.7733 H   0  0  0  0  0  0  0  0  0  0  0  0
   -0.0257   -5.9094   32.2045 H   0  0  0  0  0  0  0  0  0  0  0  0
   -0.1444   -3.4414   32.3835 H   0  0  0  0  0  0  0  0  0  0  0  0
   -0.0622   -5.5791   27.8840 H   0  0  0  0  0  0  0  0  0  0  0  0
    0.5120   -0.9605   28.4535 H   0  0  0  0  0  0  0  0  0  0  0  0
   -1.2598   -1.1653   28.4661 H   0  0  0  0  0  0  0  0  0  0  0  0
   -5.8088  -14.8623   30.1141 H   0  0  0  0  0  0  0  0  0  0  0  0
   -7.6687  -14.1449   32.8320 H   0  0  0  0  0  0  0  0  0  0  0  0
   -8.5017  -14.6447   31.5157 H   0  0  0  0  0  0  0  0  0  0  0  0
   -7.9671  -17.0418   33.4390 H   0  0  0  0  0  0  0  0  0  0  0  0
   -6.2620  -17.0038   32.7327 H   0  0  0  0  0  0  0  0  0  0  0  0
   -8.3667  -18.3780   28.2789 H   0  0  0  0  0  0  0  0  0  0  0  0
  -10.4164  -20.4193   28.6782 H   0  0  0  0  0  0  0  0  0  0  0  0
  -11.6895  -22.0462   31.0369 H   0  0  0  0  0  0  0  0  0  0  0  0
  -12.6813  -21.4580   33.2288 H   0  0  0  0  0  0  0  0  0  0  0  0
  -11.8870  -19.4804   34.4559 H   0  0  0  0  0  0  0  0  0  0  0  0
   -9.8127  -18.2187   33.9065 H   0  0  0  0  0  0  0  0  0  0  0  0
  1  2  2  0
  2  3  1  0
  3  4  1  0
  4  5  1  0
  5  6  1  0
  6  7  1  0
  7  8  2  0
  8  9  1  0
  9 10  2  0
 10 11  1  0
 11 12  2  0
 12 13  1  0
 13 14  2  0
 13 15  1  0
 15 16  1  0
 16 17  1  0
  8 18  1  0
 18 19  1  0
  2 20  1  0
 20 21  1  0
 21 22  1  0
 22 23  1  0
 23 24  2  0
 24 25  1  0
 25 26  1  0
 26 27  2  0
 27 28  1  0
 28 29  2  0
 29 30  1  0
 30 31  2  0
 19  6  2  0
 31 23  1  0
 14  9  1  0
 31 26  1  0
 17 12  1  0
  3 32  1  0
  3 33  1  0
  5 34  1  0
  5 35  1  0
  7 36  1  0
 10 37  1  0
 11 38  1  0
 14 39  1  0
 16 40  1  0
 16 41  1  0
 20 42  1  0
 21 43  1  0
 21 44  1  0
 22 45  1  0
 22 46  1  0
 24 47  1  0
 25 48  1  0
 27 49  1  0
 28 50  1  0
 29 51  1  0
 30 52  1  0
M  END
>  <Energy>  (289) 
1143.874354266432

>  <compound_id>  (289) 
5017

>  <target_id>  (289) 
1

>  <reference_id>  (289) 
39

>  <inspiration_ids>  (289) 
[39, 13]

>  <energy_score>  (289) 
954.3264876364335

>  <distance_score>  (289) 
6.161886872672225

>  <path>  (289) 
/opt/xchem-fragalysis-2/maxwin/BulkDock/SCRATCH/511018/C5017-P39/C5017-P39.minimised.mol

>  <scratch_subdir>  (289) 
/opt/xchem-fragalysis-2/maxwin/BulkDock/SCRATCH/511018/C5017-P39

>  <fragmenstein_runtime>  (289) 
21.193612575531006

>  <fragmenstein_outcome>  (289) 
too moved

>  <fragmenstein_mode>  (289) 
expansion

>  <fragmenstein_error>  (289) 


$$$$
C5017-P13
     RDKit          3D

 52 56  0  0  0  0  0  0  0  0999 V2000
   -8.1771  -14.5737   31.7764 O   0  0  0  0  0  0  0  0  0  0  0  0
   -7.0440  -14.2282   31.5264 C   0  0  0  0  0  0  0  0  0  0  0  0
   -6.6494  -12.5066   32.4845 C   0  0  0  0  0  0  0  0  0  0  0  0
   -5.6511  -11.2642   33.1796 O   0  0  0  0  0  0  0  0  0  0  0  0
   -5.5539  -10.2341   34.5920 C   0  0  0  0  0  0  0  0  0  0  0  0
   -4.1037   -9.6182   35.3056 C   0  0  0  0  0  0  0  0  0  0  0  0
   -3.7335   -8.2605   35.4916 C   0  0  0  0  0  0  0  0  0  0  0  0
   -2.4130   -8.1960   35.0365 C   0  0  0  0  0  0  0  0  0  0  0  0
   -1.5835   -7.2725   34.1908 C   0  0  0  0  0  0  0  0  0  0  0  0
   -1.2828   -7.6757   32.8566 C   0  0  0  0  0  0  0  0  0  0  0  0
   -0.7767   -6.7865   31.8826 C   0  0  0  0  0  0  0  0  0  0  0  0
   -0.5811   -5.4760   32.2448 C   0  0  0  0  0  0  0  0  0  0  0  0
   -0.7917   -5.0730   33.5397 C   0  0  0  0  0  0  0  0  0  0  0  0
   -1.2544   -5.9487   34.5354 C   0  0  0  0  0  0  0  0  0  0  0  0
   -0.5888   -3.7290   33.6793 O   0  0  0  0  0  0  0  0  0  0  0  0
   -0.2810   -3.3380   32.3217 C   0  0  0  0  0  0  0  0  0  0  0  0
   -0.2369   -4.4565   31.4135 O   0  0  0  0  0  0  0  0  0  0  0  0
   -1.9223   -9.4581   35.2370 O   0  0  0  0  0  0  0  0  0  0  0  0
   -2.9860  -10.2920   35.6060 N   0  0  0  0  0  0  0  0  0  0  0  0
   -5.9949  -15.0830   30.4804 N   0  0  0  0  0  0  0  0  0  0  0  0
   -6.2893  -16.6619   29.3396 C   0  0  0  0  0  0  0  0  0  0  0  0
   -7.8952  -17.8922   28.4920 C   0  0  0  0  0  0  0  0  0  0  0  0
   -8.7408  -19.7965   28.3980 C   0  0  0  0  0  0  0  0  0  0  0  0
   -7.8450  -21.1596   27.7529 C   0  0  0  0  0  0  0  0  0  0  0  0
   -8.2716  -22.5035   27.9938 N   0  0  0  0  0  0  0  0  0  0  0  0
   -9.6727  -22.6242   28.2187 C   0  0  0  0  0  0  0  0  0  0  0  0
  -10.3774  -23.7198   27.7252 C   0  0  0  0  0  0  0  0  0  0  0  0
  -11.5854  -23.4023   27.2109 C   0  0  0  0  0  0  0  0  0  0  0  0
  -12.1253  -22.2392   27.6642 C   0  0  0  0  0  0  0  0  0  0  0  0
  -11.5670  -21.4181   28.6431 C   0  0  0  0  0  0  0  0  0  0  0  0
  -10.2065  -21.1880   28.2952 C   0  0  0  0  0  0  0  0  0  0  0  0
   -6.8579  -11.9098   31.6383 H   0  0  0  0  0  0  0  0  0  0  0  0
   -7.5753  -12.3443   33.0463 H   0  0  0  0  0  0  0  0  0  0  0  0
   -5.6602   -9.2828   34.0745 H   0  0  0  0  0  0  0  0  0  0  0  0
   -6.2957  -10.4379   35.3696 H   0  0  0  0  0  0  0  0  0  0  0  0
   -4.4911   -7.5267   35.5628 H   0  0  0  0  0  0  0  0  0  0  0  0
   -1.5185   -8.6954   32.5488 H   0  0  0  0  0  0  0  0  0  0  0  0
   -0.6031   -7.1122   30.8631 H   0  0  0  0  0  0  0  0  0  0  0  0
   -1.4576   -5.5595   35.5290 H   0  0  0  0  0  0  0  0  0  0  0  0
   -1.0456   -2.6322   31.9772 H   0  0  0  0  0  0  0  0  0  0  0  0
    0.6942   -2.8385   32.3139 H   0  0  0  0  0  0  0  0  0  0  0  0
   -5.1002  -14.6506   30.5036 H   0  0  0  0  0  0  0  0  0  0  0  0
   -6.6978  -15.8405   28.7326 H   0  0  0  0  0  0  0  0  0  0  0  0
   -5.2282  -16.7178   29.2577 H   0  0  0  0  0  0  0  0  0  0  0  0
   -8.7362  -17.7408   29.0649 H   0  0  0  0  0  0  0  0  0  0  0  0
   -8.3451  -17.2573   27.7077 H   0  0  0  0  0  0  0  0  0  0  0  0
   -6.7950  -21.2131   27.5864 H   0  0  0  0  0  0  0  0  0  0  0  0
   -7.8521  -23.2176   27.4539 H   0  0  0  0  0  0  0  0  0  0  0  0
   -9.8932  -24.6350   27.4287 H   0  0  0  0  0  0  0  0  0  0  0  0
  -12.1318  -24.0602   26.5521 H   0  0  0  0  0  0  0  0  0  0  0  0
  -13.0895  -22.0439   27.2768 H   0  0  0  0  0  0  0  0  0  0  0  0
  -12.2135  -20.7179   29.1508 H   0  0  0  0  0  0  0  0  0  0  0  0
  1  2  2  0
  2  3  1  0
  3  4  1  0
  4  5  1  0
  5  6  1  0
  6  7  1  0
  7  8  2  0
  8  9  1  0
  9 10  2  0
 10 11  1  0
 11 12  2  0
 12 13  1  0
 13 14  2  0
 13 15  1  0
 15 16  1  0
 16 17  1  0
  8 18  1  0
 18 19  1  0
  2 20  1  0
 20 21  1  0
 21 22  1  0
 22 23  1  0
 23 24  2  0
 24 25  1  0
 25 26  1  0
 26 27  2  0
 27 28  1  0
 28 29  2  0
 29 30  1  0
 30 31  2  0
 19  6  2  0
 31 23  1  0
 14  9  1  0
 31 26  1  0
 17 12  1  0
  3 32  1  0
  3 33  1  0
  5 34  1  0
  5 35  1  0
  7 36  1  0
 10 37  1  0
 11 38  1  0
 14 39  1  0
 16 40  1  0
 16 41  1  0
 20 42  1  0
 21 43  1  0
 21 44  1  0
 22 45  1  0
 22 46  1  0
 24 47  1  0
 25 48  1  0
 27 49  1  0
 28 50  1  0
 29 51  1  0
 30 52  1  0
M  END
>  <Energy>  (290) 
957.44445134095872

>  <compound_id>  (290) 
5017

>  <target_id>  (290) 
1

>  <reference_id>  (290) 
13

>  <inspiration_ids>  (290) 
[39, 13]

>  <energy_score>  (290) 
767.8965847109419

>  <distance_score>  (290) 
7.492114759221193

>  <path>  (290) 
/opt/xchem-fragalysis-2/maxwin/BulkDock/SCRATCH/511018/C5017-P13/C5017-P13.minimised.mol

>  <scratch_subdir>  (290) 
/opt/xchem-fragalysis-2/maxwin/BulkDock/SCRATCH/511018/C5017-P13

>  <fragmenstein_runtime>  (290) 
21.64806079864502

>  <fragmenstein_outcome>  (290) 
too moved

>  <fragmenstein_mode>  (290) 
expansion

>  <fragmenstein_error>  (290) 


$$$$
C5018-P39
     RDKit          3D

 47 50  0  0  0  0  0  0  0  0999 V2000
   -0.2485  -11.8294   28.2463 C   0  0  0  0  0  0  0  0  0  0  0  0
   -0.8603  -11.3773   29.5743 C   0  0  0  0  0  0  0  0  0  0  0  0
   -2.3033  -11.8552   29.6733 N   0  0  0  0  0  0  0  0  0  0  0  0
   -2.9223  -13.1974   29.3596 C   0  0  0  0  0  0  0  0  0  0  0  0
   -2.4367  -14.1761   28.8846 O   0  0  0  0  0  0  0  0  0  0  0  0
   -4.5511  -12.9813   29.8792 N   0  0  0  0  0  0  0  0  0  0  0  0
   -5.9376  -14.1692   29.9748 C   0  0  0  0  0  0  0  0  0  0  0  0
   -6.2229  -15.7040   28.8803 C   0  0  0  0  0  0  0  0  0  0  0  0
   -7.7471  -16.6976   28.1546 C   0  0  0  0  0  0  0  0  0  0  0  0
   -8.5233  -16.3203   27.0566 C   0  0  0  0  0  0  0  0  0  0  0  0
   -9.3327  -17.3873   26.8918 N   0  0  0  0  0  0  0  0  0  0  0  0
   -8.9210  -18.7279   27.8647 C   0  0  0  0  0  0  0  0  0  0  0  0
   -9.6418  -20.5238   27.8200 C   0  0  0  0  0  0  0  0  0  0  0  0
  -10.4678  -21.2641   28.6423 C   0  0  0  0  0  0  0  0  0  0  0  0
  -10.8459  -20.2493   29.4340 C   0  0  0  0  0  0  0  0  0  0  0  0
  -11.6943  -20.8066   30.3614 F   0  0  0  0  0  0  0  0  0  0  0  0
  -10.4924  -18.2481   29.3615 C   0  0  0  0  0  0  0  0  0  0  0  0
   -8.5669  -17.9964   28.8297 C   0  0  0  0  0  0  0  0  0  0  0  0
   -0.6249   -9.8292   29.8537 C   0  0  0  0  0  0  0  0  0  0  0  0
   -0.7449   -9.2866   31.1633 C   0  0  0  0  0  0  0  0  0  0  0  0
   -0.7468   -7.8818   31.4120 C   0  0  0  0  0  0  0  0  0  0  0  0
   -0.6008   -7.0006   30.3580 C   0  0  0  0  0  0  0  0  0  0  0  0
   -0.4830   -7.4730   29.0779 C   0  0  0  0  0  0  0  0  0  0  0  0
   -0.4196   -8.8621   28.8141 C   0  0  0  0  0  0  0  0  0  0  0  0
   -0.3632   -6.4559   28.1721 O   0  0  0  0  0  0  0  0  0  0  0  0
   -0.2097   -5.3186   29.0520 C   0  0  0  0  0  0  0  0  0  0  0  0
   -0.5000   -5.6424   30.4337 O   0  0  0  0  0  0  0  0  0  0  0  0
   -0.2463  -12.9214   28.1684 H   0  0  0  0  0  0  0  0  0  0  0  0
    0.7903  -11.4946   28.1526 H   0  0  0  0  0  0  0  0  0  0  0  0
   -0.8141  -11.4461   27.3904 H   0  0  0  0  0  0  0  0  0  0  0  0
   -0.3284  -11.9125   30.3708 H   0  0  0  0  0  0  0  0  0  0  0  0
   -2.9686  -11.2909   30.1400 H   0  0  0  0  0  0  0  0  0  0  0  0
   -4.6493  -12.0838   30.3110 H   0  0  0  0  0  0  0  0  0  0  0  0
   -6.4622  -14.1685   30.9146 H   0  0  0  0  0  0  0  0  0  0  0  0
   -6.5954  -13.5810   29.3904 H   0  0  0  0  0  0  0  0  0  0  0  0
   -6.8842  -14.9174   28.4546 H   0  0  0  0  0  0  0  0  0  0  0  0
   -5.7415  -16.3942   29.5522 H   0  0  0  0  0  0  0  0  0  0  0  0
   -8.5251  -15.4731   26.3838 H   0  0  0  0  0  0  0  0  0  0  0  0
   -9.9655  -17.4646   26.1114 H   0  0  0  0  0  0  0  0  0  0  0  0
  -10.0883  -20.8154   26.8964 H   0  0  0  0  0  0  0  0  0  0  0  0
  -10.9043  -22.2333   28.5305 H   0  0  0  0  0  0  0  0  0  0  0  0
  -10.4693  -19.5451   30.3560 H   0  0  0  0  0  0  0  0  0  0  0  0
   -0.8487   -9.9551   32.0146 H   0  0  0  0  0  0  0  0  0  0  0  0
   -0.8259   -7.5132   32.4293 H   0  0  0  0  0  0  0  0  0  0  0  0
   -0.2063   -9.1816   27.7967 H   0  0  0  0  0  0  0  0  0  0  0  0
    0.8165   -4.9398   28.9984 H   0  0  0  0  0  0  0  0  0  0  0  0
   -0.8710   -4.5137   28.7182 H   0  0  0  0  0  0  0  0  0  0  0  0
  1  2  1  0
  2  3  1  0
  3  4  1  0
  4  5  2  0
  4  6  1  0
  6  7  1  0
  7  8  1  0
  8  9  1  0
  9 10  2  0
 10 11  1  0
 11 12  1  0
 12 13  2  0
 13 14  1  0
 14 15  2  0
 15 16  1  0
 15 17  1  0
 17 18  2  0
  2 19  1  0
 19 20  2  0
 20 21  1  0
 21 22  2  0
 22 23  1  0
 23 24  2  0
 23 25  1  0
 25 26  1  0
 26 27  1  0
 18  9  1  0
 24 19  1  0
 18 12  1  0
 27 22  1  0
  1 28  1  0
  1 29  1  0
  1 30  1  0
  2 31  1  0
  3 32  1  0
  6 33  1  0
  7 34  1  0
  7 35  1  0
  8 36  1  0
  8 37  1  0
 10 38  1  0
 11 39  1  0
 13 40  1  0
 14 41  1  0
 17 42  1  0
 20 43  1  0
 21 44  1  0
 24 45  1  0
 26 46  1  0
 26 47  1  0
M  END
>  <Energy>  (291) 
833.14868133781806

>  <compound_id>  (291) 
5018

>  <target_id>  (291) 
1

>  <reference_id>  (291) 
39

>  <inspiration_ids>  (291) 
[39, 13]

>  <energy_score>  (291) 
850.628451870642

>  <distance_score>  (291) 
8.716844184037022

>  <path>  (291) 
/opt/xchem-fragalysis-2/maxwin/BulkDock/SCRATCH/511018/C5018-P39/C5018-P39.minimised.mol

>  <scratch_subdir>  (291) 
/opt/xchem-fragalysis-2/maxwin/BulkDock/SCRATCH/511018/C5018-P39

>  <fragmenstein_runtime>  (291) 
29.581097841262817

>  <fragmenstein_outcome>  (291) 
too moved

>  <fragmenstein_mode>  (291) 
expansion

>  <fragmenstein_error>  (291) 


$$$$
C5018-P13
     RDKit          3D

 47 50  0  0  0  0  0  0  0  0999 V2000
    1.0836  -12.5762   31.9501 C   0  0  0  0  0  0  0  0  0  0  0  0
   -0.3516  -12.0372   31.8213 C   0  0  0  0  0  0  0  0  0  0  0  0
   -1.2257  -13.1480   31.3805 N   0  0  0  0  0  0  0  0  0  0  0  0
   -1.6773  -14.4246   32.1206 C   0  0  0  0  0  0  0  0  0  0  0  0
   -1.3533  -14.8219   33.1740 O   0  0  0  0  0  0  0  0  0  0  0  0
   -2.7350  -14.9709   31.1518 N   0  0  0  0  0  0  0  0  0  0  0  0
   -3.7155  -16.0909   31.3065 C   0  0  0  0  0  0  0  0  0  0  0  0
   -5.5438  -16.1850   31.8489 C   0  0  0  0  0  0  0  0  0  0  0  0
   -6.1037  -18.0021   32.6822 C   0  0  0  0  0  0  0  0  0  0  0  0
   -7.3278  -18.3386   32.4266 C   0  0  0  0  0  0  0  0  0  0  0  0
   -7.1762  -19.1931   31.0970 N   0  0  0  0  0  0  0  0  0  0  0  0
   -5.5953  -20.3836   30.8871 C   0  0  0  0  0  0  0  0  0  0  0  0
   -5.3744  -21.7560   29.4842 C   0  0  0  0  0  0  0  0  0  0  0  0
   -7.2205  -22.6806   29.6910 C   0  0  0  0  0  0  0  0  0  0  0  0
   -7.5980  -21.3652   31.5452 C   0  0  0  0  0  0  0  0  0  0  0  0
   -9.0933  -21.7719   32.3381 F   0  0  0  0  0  0  0  0  0  0  0  0
   -6.7905  -20.8219   33.0159 C   0  0  0  0  0  0  0  0  0  0  0  0
   -5.7732  -19.9771   32.6536 C   0  0  0  0  0  0  0  0  0  0  0  0
   -0.3655  -10.6242   31.1554 C   0  0  0  0  0  0  0  0  0  0  0  0
    0.5134  -10.3070   30.0885 C   0  0  0  0  0  0  0  0  0  0  0  0
    0.8204   -8.9751   29.7404 C   0  0  0  0  0  0  0  0  0  0  0  0
    0.2007   -7.9507   30.4212 C   0  0  0  0  0  0  0  0  0  0  0  0
   -0.7154   -8.2167   31.4044 C   0  0  0  0  0  0  0  0  0  0  0  0
   -1.0155   -9.5278   31.7918 C   0  0  0  0  0  0  0  0  0  0  0  0
   -1.2145   -7.0653   31.9420 O   0  0  0  0  0  0  0  0  0  0  0  0
   -0.3446   -6.0775   31.3355 C   0  0  0  0  0  0  0  0  0  0  0  0
    0.4146   -6.6184   30.2395 O   0  0  0  0  0  0  0  0  0  0  0  0
    1.1167  -13.4408   32.6226 H   0  0  0  0  0  0  0  0  0  0  0  0
    1.7629  -11.8175   32.3542 H   0  0  0  0  0  0  0  0  0  0  0  0
    1.4748  -12.9105   30.9829 H   0  0  0  0  0  0  0  0  0  0  0  0
   -0.6754  -11.8675   32.8579 H   0  0  0  0  0  0  0  0  0  0  0  0
   -1.6268  -13.1383   30.4602 H   0  0  0  0  0  0  0  0  0  0  0  0
   -2.7067  -14.4445   30.2955 H   0  0  0  0  0  0  0  0  0  0  0  0
   -3.1431  -16.9221   31.7248 H   0  0  0  0  0  0  0  0  0  0  0  0
   -3.8270  -16.3027   30.2438 H   0  0  0  0  0  0  0  0  0  0  0  0
   -5.9928  -15.2265   32.0162 H   0  0  0  0  0  0  0  0  0  0  0  0
   -5.8582  -16.2505   30.7750 H   0  0  0  0  0  0  0  0  0  0  0  0
   -7.8397  -17.4386   32.6271 H   0  0  0  0  0  0  0  0  0  0  0  0
   -7.6607  -18.7150   30.3571 H   0  0  0  0  0  0  0  0  0  0  0  0
   -4.4243  -22.3069   29.6941 H   0  0  0  0  0  0  0  0  0  0  0  0
   -7.7683  -22.6892   28.6797 H   0  0  0  0  0  0  0  0  0  0  0  0
   -7.4237  -20.6639   33.8890 H   0  0  0  0  0  0  0  0  0  0  0  0
    1.0574  -11.1026   29.5788 H   0  0  0  0  0  0  0  0  0  0  0  0
    1.5769   -8.7713   28.9882 H   0  0  0  0  0  0  0  0  0  0  0  0
   -1.6771   -9.6962   32.6383 H   0  0  0  0  0  0  0  0  0  0  0  0
   -0.9419   -5.2332   30.9825 H   0  0  0  0  0  0  0  0  0  0  0  0
    0.3501   -5.7079   32.1004 H   0  0  0  0  0  0  0  0  0  0  0  0
  1  2  1  0
  2  3  1  0
  3  4  1  0
  4  5  2  0
  4  6  1  0
  6  7  1  0
  7  8  1  0
  8  9  1  0
  9 10  2  0
 10 11  1  0
 11 12  1  0
 12 13  2  0
 13 14  1  0
 14 15  2  0
 15 16  1  0
 15 17  1  0
 17 18  2  0
  2 19  1  0
 19 20  2  0
 20 21  1  0
 21 22  2  0
 22 23  1  0
 23 24  2  0
 23 25  1  0
 25 26  1  0
 26 27  1  0
 18  9  1  0
 24 19  1  0
 18 12  1  0
 27 22  1  0
  1 28  1  0
  1 29  1  0
  1 30  1  0
  2 31  1  0
  3 32  1  0
  6 33  1  0
  7 34  1  0
  7 35  1  0
  8 36  1  0
  8 37  1  0
 10 38  1  0
 11 39  1  0
 13 40  1  0
 14 41  1  0
 17 42  1  0
 20 43  1  0
 21 44  1  0
 24 45  1  0
 26 46  1  0
 26 47  1  0
M  END
>  <Energy>  (292) 
1398.4919550091824

>  <compound_id>  (292) 
5018

>  <target_id>  (292) 
1

>  <reference_id>  (292) 
13

>  <inspiration_ids>  (292) 
[39, 13]

>  <energy_score>  (292) 
1415.9717255420378

>  <distance_score>  (292) 
9.688635265515291

>  <path>  (292) 
/opt/xchem-fragalysis-2/maxwin/BulkDock/SCRATCH/511018/C5018-P13/C5018-P13.minimised.mol

>  <scratch_subdir>  (292) 
/opt/xchem-fragalysis-2/maxwin/BulkDock/SCRATCH/511018/C5018-P13

>  <fragmenstein_runtime>  (292) 
32.49386978149414

>  <fragmenstein_outcome>  (292) 
too moved

>  <fragmenstein_mode>  (292) 
expansion

>  <fragmenstein_error>  (292) 


$$$$
C5020-P39
     RDKit          3D

 38 41  0  0  0  0  0  0  0  0999 V2000
   -4.4501  -21.1498   27.4866 O   0  0  0  0  0  0  0  0  0  0  0  0
   -4.6500  -19.9882   27.8383 C   0  0  0  0  0  0  0  0  0  0  0  0
   -5.9973  -19.3980   27.9663 C   0  0  0  0  0  0  0  0  0  0  0  0
   -6.2861  -18.2669   28.7049 C   0  0  0  0  0  0  0  0  0  0  0  0
   -7.7537  -17.7286   28.3908 N   0  0  0  0  0  0  0  0  0  0  0  0
   -7.8574  -15.8064   28.1844 C   0  0  0  0  0  0  0  0  0  0  0  0
   -7.3346  -13.8037   28.6139 C   0  0  0  0  0  0  0  0  0  0  0  0
   -6.1527  -12.1525   28.7379 O   0  0  0  0  0  0  0  0  0  0  0  0
   -6.6074  -10.3313   29.3426 C   0  0  0  0  0  0  0  0  0  0  0  0
   -6.3433  -10.1065   30.5807 C   0  0  0  0  0  0  0  0  0  0  0  0
   -5.5996   -8.7646   30.6040 C   0  0  0  0  0  0  0  0  0  0  0  0
   -4.9874   -8.0062   29.1972 C   0  0  0  0  0  0  0  0  0  0  0  0
   -5.2100   -8.1363   27.9924 C   0  0  0  0  0  0  0  0  0  0  0  0
   -6.3488   -9.1345   28.0636 C   0  0  0  0  0  0  0  0  0  0  0  0
   -4.0731   -7.5784   27.3877 O   0  0  0  0  0  0  0  0  0  0  0  0
   -2.8451   -7.1550   28.2141 C   0  0  0  0  0  0  0  0  0  0  0  0
   -3.3752   -7.3641   29.5037 O   0  0  0  0  0  0  0  0  0  0  0  0
   -8.4237  -19.2788   28.3120 C   0  0  0  0  0  0  0  0  0  0  0  0
   -9.8442  -20.5839   28.2341 C   0  0  0  0  0  0  0  0  0  0  0  0
  -10.1843  -21.9758   28.0795 C   0  0  0  0  0  0  0  0  0  0  0  0
   -9.0857  -22.7366   27.8777 C   0  0  0  0  0  0  0  0  0  0  0  0
   -7.8559  -21.9611   27.7568 C   0  0  0  0  0  0  0  0  0  0  0  0
   -7.3589  -20.1387   27.8277 C   0  0  0  0  0  0  0  0  0  0  0  0
   -3.8155  -19.3345   28.1360 H   0  0  0  0  0  0  0  0  0  0  0  0
   -5.6184  -17.5964   29.2368 H   0  0  0  0  0  0  0  0  0  0  0  0
   -8.3059  -15.8872   27.1644 H   0  0  0  0  0  0  0  0  0  0  0  0
   -6.8174  -16.0063   28.5391 H   0  0  0  0  0  0  0  0  0  0  0  0
   -7.4187  -13.6183   27.5307 H   0  0  0  0  0  0  0  0  0  0  0  0
   -6.5441  -14.1485   29.2824 H   0  0  0  0  0  0  0  0  0  0  0  0
   -6.0365  -10.8971   31.2908 H   0  0  0  0  0  0  0  0  0  0  0  0
   -4.8791   -8.5993   31.4843 H   0  0  0  0  0  0  0  0  0  0  0  0
   -6.8552   -9.3697   27.1344 H   0  0  0  0  0  0  0  0  0  0  0  0
   -1.8271   -7.5959   28.2480 H   0  0  0  0  0  0  0  0  0  0  0  0
   -2.3237   -6.2435   27.8882 H   0  0  0  0  0  0  0  0  0  0  0  0
  -10.5130  -20.4648   29.1736 H   0  0  0  0  0  0  0  0  0  0  0  0
  -11.1725  -22.3703   28.2688 H   0  0  0  0  0  0  0  0  0  0  0  0
   -9.1790  -23.8075   27.8360 H   0  0  0  0  0  0  0  0  0  0  0  0
   -6.9314  -22.5780   27.6442 H   0  0  0  0  0  0  0  0  0  0  0  0
  1  2  2  0
  2  3  1  0
  3  4  2  0
  4  5  1  0
  5  6  1  0
  6  7  1  0
  7  8  1  0
  8  9  1  0
  9 10  2  0
 10 11  1  0
 11 12  2  0
 12 13  1  0
 13 14  2  0
 13 15  1  0
 15 16  1  0
 16 17  1  0
  5 18  1  0
 18 19  2  0
 19 20  1  0
 20 21  2  0
 21 22  1  0
 22 23  2  0
 23  3  1  0
 14  9  1  0
 23 18  1  0
 17 12  1  0
  2 24  1  0
  4 25  1  0
  6 26  1  0
  6 27  1  0
  7 28  1  0
  7 29  1  0
 10 30  1  0
 11 31  1  0
 14 32  1  0
 16 33  1  0
 16 34  1  0
 19 35  1  0
 20 36  1  0
 21 37  1  0
 22 38  1  0
M  END
>  <Energy>  (293) 
1086.702749729835

>  <compound_id>  (293) 
5020

>  <target_id>  (293) 
1

>  <reference_id>  (293) 
39

>  <inspiration_ids>  (293) 
[39, 13]

>  <energy_score>  (293) 
1007.7327426206273

>  <distance_score>  (293) 
8.5912726817303

>  <path>  (293) 
/opt/xchem-fragalysis-2/maxwin/BulkDock/SCRATCH/511018/C5020-P39/C5020-P39.minimised.mol

>  <scratch_subdir>  (293) 
/opt/xchem-fragalysis-2/maxwin/BulkDock/SCRATCH/511018/C5020-P39

>  <fragmenstein_runtime>  (293) 
14.251309156417847

>  <fragmenstein_outcome>  (293) 
too moved

>  <fragmenstein_mode>  (293) 
expansion

>  <fragmenstein_error>  (293) 


$$$$
C5020-P13
     RDKit          3D

 38 41  0  0  0  0  0  0  0  0999 V2000
   -8.1972  -17.2817   28.1473 O   0  0  0  0  0  0  0  0  0  0  0  0
   -8.9394  -16.4008   27.7385 C   0  0  0  0  0  0  0  0  0  0  0  0
   -8.7564  -14.9667   27.7102 C   0  0  0  0  0  0  0  0  0  0  0  0
   -7.7421  -13.9669   27.8505 C   0  0  0  0  0  0  0  0  0  0  0  0
   -7.8583  -12.8727   26.9110 N   0  0  0  0  0  0  0  0  0  0  0  0
   -6.8030  -11.3802   26.1447 C   0  0  0  0  0  0  0  0  0  0  0  0
   -6.4639   -9.4779   27.1618 C   0  0  0  0  0  0  0  0  0  0  0  0
   -4.9888   -8.1308   27.5430 O   0  0  0  0  0  0  0  0  0  0  0  0
   -3.2194   -7.4443   27.4804 C   0  0  0  0  0  0  0  0  0  0  0  0
   -2.2412   -6.8295   28.6461 C   0  0  0  0  0  0  0  0  0  0  0  0
   -1.3129   -5.2395   28.8130 C   0  0  0  0  0  0  0  0  0  0  0  0
   -1.2333   -4.2730   27.8031 C   0  0  0  0  0  0  0  0  0  0  0  0
   -1.8754   -5.0071   26.4830 C   0  0  0  0  0  0  0  0  0  0  0  0
   -2.5492   -6.6729   26.4584 C   0  0  0  0  0  0  0  0  0  0  0  0
   -2.8053   -3.5071   25.7832 O   0  0  0  0  0  0  0  0  0  0  0  0
   -2.2255   -2.3339   26.9423 C   0  0  0  0  0  0  0  0  0  0  0  0
   -1.1575   -2.9037   27.8575 O   0  0  0  0  0  0  0  0  0  0  0  0
   -9.6110  -13.1757   26.9854 C   0  0  0  0  0  0  0  0  0  0  0  0
  -10.9481  -12.4845   26.3609 C   0  0  0  0  0  0  0  0  0  0  0  0
  -12.2537  -12.9403   26.6854 C   0  0  0  0  0  0  0  0  0  0  0  0
  -12.4085  -14.0208   27.5388 C   0  0  0  0  0  0  0  0  0  0  0  0
  -11.2812  -14.6987   28.0270 C   0  0  0  0  0  0  0  0  0  0  0  0
   -9.9341  -14.3089   27.7256 C   0  0  0  0  0  0  0  0  0  0  0  0
   -9.8971  -16.7333   27.3107 H   0  0  0  0  0  0  0  0  0  0  0  0
   -6.8932  -14.0432   28.4910 H   0  0  0  0  0  0  0  0  0  0  0  0
   -6.0306  -12.0164   26.5451 H   0  0  0  0  0  0  0  0  0  0  0  0
   -6.9457  -11.3915   25.0814 H   0  0  0  0  0  0  0  0  0  0  0  0
   -7.2903   -8.9585   26.7057 H   0  0  0  0  0  0  0  0  0  0  0  0
   -5.7905  -10.0571   26.6941 H   0  0  0  0  0  0  0  0  0  0  0  0
   -2.2126   -7.3358   29.6162 H   0  0  0  0  0  0  0  0  0  0  0  0
   -0.8636   -5.0469   29.7974 H   0  0  0  0  0  0  0  0  0  0  0  0
   -2.2527   -7.0882   25.5124 H   0  0  0  0  0  0  0  0  0  0  0  0
   -3.1048   -2.0547   27.5423 H   0  0  0  0  0  0  0  0  0  0  0  0
   -1.9575   -1.3927   26.4639 H   0  0  0  0  0  0  0  0  0  0  0  0
  -10.8058  -11.6922   25.6205 H   0  0  0  0  0  0  0  0  0  0  0  0
  -13.1197  -12.4430   26.2587 H   0  0  0  0  0  0  0  0  0  0  0  0
  -13.4040  -14.3593   27.8149 H   0  0  0  0  0  0  0  0  0  0  0  0
  -11.4389  -15.5610   28.6740 H   0  0  0  0  0  0  0  0  0  0  0  0
  1  2  2  0
  2  3  1  0
  3  4  2  0
  4  5  1  0
  5  6  1  0
  6  7  1  0
  7  8  1  0
  8  9  1  0
  9 10  2  0
 10 11  1  0
 11 12  2  0
 12 13  1  0
 13 14  2  0
 13 15  1  0
 15 16  1  0
 16 17  1  0
  5 18  1  0
 18 19  2  0
 19 20  1  0
 20 21  2  0
 21 22  1  0
 22 23  2  0
 23  3  1  0
 14  9  1  0
 23 18  1  0
 17 12  1  0
  2 24  1  0
  4 25  1  0
  6 26  1  0
  6 27  1  0
  7 28  1  0
  7 29  1  0
 10 30  1  0
 11 31  1  0
 14 32  1  0
 16 33  1  0
 16 34  1  0
 19 35  1  0
 20 36  1  0
 21 37  1  0
 22 38  1  0
M  END
>  <Energy>  (294) 
1047.4313815775256

>  <compound_id>  (294) 
5020

>  <target_id>  (294) 
1

>  <reference_id>  (294) 
13

>  <inspiration_ids>  (294) 
[39, 13]

>  <energy_score>  (294) 
968.4613744683139

>  <distance_score>  (294) 
8.938333167103131

>  <path>  (294) 
/opt/xchem-fragalysis-2/maxwin/BulkDock/SCRATCH/511018/C5020-P13/C5020-P13.minimised.mol

>  <scratch_subdir>  (294) 
/opt/xchem-fragalysis-2/maxwin/BulkDock/SCRATCH/511018/C5020-P13

>  <fragmenstein_runtime>  (294) 
17.97873616218567

>  <fragmenstein_outcome>  (294) 
too moved

>  <fragmenstein_mode>  (294) 
expansion

>  <fragmenstein_error>  (294) 


$$$$
C5021-P39
     RDKit          3D

 38 41  0  0  0  0  0  0  0  0999 V2000
   -9.1112  -23.8498   27.5356 O   0  0  0  0  0  0  0  0  0  0  0  0
   -8.2809  -22.9504   27.4164 C   0  0  0  0  0  0  0  0  0  0  0  0
   -8.6856  -21.6374   27.5153 C   0  0  0  0  0  0  0  0  0  0  0  0
   -7.7361  -20.3589   27.7775 C   0  0  0  0  0  0  0  0  0  0  0  0
   -8.7758  -18.9325   28.1611 N   0  0  0  0  0  0  0  0  0  0  0  0
   -8.4868  -16.9983   27.4904 C   0  0  0  0  0  0  0  0  0  0  0  0
   -9.0090  -14.9597   27.1491 C   0  0  0  0  0  0  0  0  0  0  0  0
  -10.2218  -14.8663   27.0628 O   0  0  0  0  0  0  0  0  0  0  0  0
   -7.9456  -13.3857   26.9298 N   0  0  0  0  0  0  0  0  0  0  0  0
   -8.4213  -11.4992   26.4171 C   0  0  0  0  0  0  0  0  0  0  0  0
   -8.8774   -9.9688   27.5416 C   0  0  0  0  0  0  0  0  0  0  0  0
   -8.4665   -9.3484   28.6247 C   0  0  0  0  0  0  0  0  0  0  0  0
   -7.1580   -9.2681   28.3957 C   0  0  0  0  0  0  0  0  0  0  0  0
   -6.7518   -9.4138   27.0981 C   0  0  0  0  0  0  0  0  0  0  0  0
   -7.2591  -10.6624   25.9375 C   0  0  0  0  0  0  0  0  0  0  0  0
   -5.6211   -8.5780   27.1785 O   0  0  0  0  0  0  0  0  0  0  0  0
   -5.4078   -8.0647   28.4377 C   0  0  0  0  0  0  0  0  0  0  0  0
   -6.1812   -8.8645   29.2329 O   0  0  0  0  0  0  0  0  0  0  0  0
   -9.9649  -20.4306   28.6710 C   0  0  0  0  0  0  0  0  0  0  0  0
  -10.9872  -20.7722   29.7897 C   0  0  0  0  0  0  0  0  0  0  0  0
  -11.5462  -22.0127   30.1568 C   0  0  0  0  0  0  0  0  0  0  0  0
  -11.7946  -22.8356   29.1091 C   0  0  0  0  0  0  0  0  0  0  0  0
  -11.1754  -22.5054   27.9096 C   0  0  0  0  0  0  0  0  0  0  0  0
  -10.1005  -21.4967   27.8347 C   0  0  0  0  0  0  0  0  0  0  0  0
   -7.1788  -23.0074   27.3098 H   0  0  0  0  0  0  0  0  0  0  0  0
   -6.8560  -20.0295   27.2131 H   0  0  0  0  0  0  0  0  0  0  0  0
   -9.1564  -17.3299   26.7251 H   0  0  0  0  0  0  0  0  0  0  0  0
   -7.5556  -17.0359   27.9648 H   0  0  0  0  0  0  0  0  0  0  0  0
   -6.9998  -13.6427   26.9433 H   0  0  0  0  0  0  0  0  0  0  0  0
  -10.0323   -9.6595   27.5876 H   0  0  0  0  0  0  0  0  0  0  0  0
   -9.2453   -8.9497   29.2360 H   0  0  0  0  0  0  0  0  0  0  0  0
   -6.6620  -11.0350   25.1323 H   0  0  0  0  0  0  0  0  0  0  0  0
   -4.4532   -7.8341   27.9597 H   0  0  0  0  0  0  0  0  0  0  0  0
   -4.6130   -7.8650   29.1070 H   0  0  0  0  0  0  0  0  0  0  0  0
  -11.9531  -20.3809   29.3527 H   0  0  0  0  0  0  0  0  0  0  0  0
  -12.0043  -22.1656   31.1275 H   0  0  0  0  0  0  0  0  0  0  0  0
  -12.3944  -23.7329   29.2064 H   0  0  0  0  0  0  0  0  0  0  0  0
  -11.2740  -23.2307   27.0989 H   0  0  0  0  0  0  0  0  0  0  0  0
  1  2  2  0
  2  3  1  0
  3  4  2  0
  4  5  1  0
  5  6  1  0
  6  7  1  0
  7  8  2  0
  7  9  1  0
  9 10  1  0
 10 11  2  0
 11 12  1  0
 12 13  2  0
 13 14  1  0
 14 15  2  0
 14 16  1  0
 16 17  1  0
 17 18  1  0
  5 19  1  0
 19 20  2  0
 20 21  1  0
 21 22  2  0
 22 23  1  0
 23 24  2  0
 24  3  1  0
 15 10  1  0
 24 19  1  0
 18 13  1  0
  2 25  1  0
  4 26  1  0
  6 27  1  0
  6 28  1  0
  9 29  1  0
 11 30  1  0
 12 31  1  0
 15 32  1  0
 17 33  1  0
 17 34  1  0
 20 35  1  0
 21 36  1  0
 22 37  1  0
 23 38  1  0
M  END
>  <Energy>  (295) 
1306.816994020719

>  <compound_id>  (295) 
5021

>  <target_id>  (295) 
1

>  <reference_id>  (295) 
39

>  <inspiration_ids>  (295) 
[39, 13]

>  <energy_score>  (295) 
1210.4604676068047

>  <distance_score>  (295) 
9.120410270756029

>  <path>  (295) 
/opt/xchem-fragalysis-2/maxwin/BulkDock/SCRATCH/511018/C5021-P39/C5021-P39.minimised.mol

>  <scratch_subdir>  (295) 
/opt/xchem-fragalysis-2/maxwin/BulkDock/SCRATCH/511018/C5021-P39

>  <fragmenstein_runtime>  (295) 
18.91775631904602

>  <fragmenstein_outcome>  (295) 
too moved

>  <fragmenstein_mode>  (295) 
expansion

>  <fragmenstein_error>  (295) 


$$$$
C5021-P13
     RDKit          3D

 38 41  0  0  0  0  0  0  0  0999 V2000
   -5.8791  -21.4017   27.8411 O   0  0  0  0  0  0  0  0  0  0  0  0
   -5.9554  -20.1737   27.9140 C   0  0  0  0  0  0  0  0  0  0  0  0
   -7.1419  -19.3871   28.4017 C   0  0  0  0  0  0  0  0  0  0  0  0
   -6.8644  -18.0285   28.6629 C   0  0  0  0  0  0  0  0  0  0  0  0
   -7.9381  -16.7243   28.1216 N   0  0  0  0  0  0  0  0  0  0  0  0
   -7.2102  -14.8118   28.4604 C   0  0  0  0  0  0  0  0  0  0  0  0
   -6.9414  -12.8651   27.8330 C   0  0  0  0  0  0  0  0  0  0  0  0
   -7.4340  -12.7357   26.7437 O   0  0  0  0  0  0  0  0  0  0  0  0
   -6.2529  -11.2291   28.7702 N   0  0  0  0  0  0  0  0  0  0  0  0
   -6.3764   -9.2172   28.2916 C   0  0  0  0  0  0  0  0  0  0  0  0
   -5.5279   -8.1849   29.1972 C   0  0  0  0  0  0  0  0  0  0  0  0
   -3.7284   -7.6085   29.5444 C   0  0  0  0  0  0  0  0  0  0  0  0
   -2.5910   -7.3202   28.9074 C   0  0  0  0  0  0  0  0  0  0  0  0
   -3.2928   -7.4128   27.7974 C   0  0  0  0  0  0  0  0  0  0  0  0
   -5.0105   -8.1932   27.7599 C   0  0  0  0  0  0  0  0  0  0  0  0
   -2.4915   -6.5297   27.0672 O   0  0  0  0  0  0  0  0  0  0  0  0
   -1.7606   -5.5969   28.3174 C   0  0  0  0  0  0  0  0  0  0  0  0
   -1.4937   -6.6776   29.2766 O   0  0  0  0  0  0  0  0  0  0  0  0
   -9.1748  -18.1513   28.3339 C   0  0  0  0  0  0  0  0  0  0  0  0
  -10.9979  -18.4081   29.1854 C   0  0  0  0  0  0  0  0  0  0  0  0
  -12.1379  -20.0117   29.2065 C   0  0  0  0  0  0  0  0  0  0  0  0
  -11.5387  -21.2567   28.7375 C   0  0  0  0  0  0  0  0  0  0  0  0
  -10.0299  -20.9895   28.1592 C   0  0  0  0  0  0  0  0  0  0  0  0
   -8.6606  -19.6320   28.4347 C   0  0  0  0  0  0  0  0  0  0  0  0
   -5.0651  -19.6071   27.6669 H   0  0  0  0  0  0  0  0  0  0  0  0
   -6.0943  -17.4427   29.0914 H   0  0  0  0  0  0  0  0  0  0  0  0
   -8.2764  -14.5540   28.5543 H   0  0  0  0  0  0  0  0  0  0  0  0
   -6.4019  -15.0874   29.1542 H   0  0  0  0  0  0  0  0  0  0  0  0
   -5.7850  -11.5044   29.6219 H   0  0  0  0  0  0  0  0  0  0  0  0
   -5.8167   -8.5169   30.2426 H   0  0  0  0  0  0  0  0  0  0  0  0
   -3.4253   -7.8332   30.6579 H   0  0  0  0  0  0  0  0  0  0  0  0
   -5.2300   -8.4484   26.8165 H   0  0  0  0  0  0  0  0  0  0  0  0
   -2.0714   -4.5950   28.7033 H   0  0  0  0  0  0  0  0  0  0  0  0
   -0.8982   -4.9037   28.1108 H   0  0  0  0  0  0  0  0  0  0  0  0
  -10.7254  -19.7263   29.6612 H   0  0  0  0  0  0  0  0  0  0  0  0
  -13.1658  -19.9292   29.4729 H   0  0  0  0  0  0  0  0  0  0  0  0
  -12.0060  -22.2213   28.6578 H   0  0  0  0  0  0  0  0  0  0  0  0
   -9.6713  -22.0850   28.2255 H   0  0  0  0  0  0  0  0  0  0  0  0
  1  2  2  0
  2  3  1  0
  3  4  2  0
  4  5  1  0
  5  6  1  0
  6  7  1  0
  7  8  2  0
  7  9  1  0
  9 10  1  0
 10 11  2  0
 11 12  1  0
 12 13  2  0
 13 14  1  0
 14 15  2  0
 14 16  1  0
 16 17  1  0
 17 18  1  0
  5 19  1  0
 19 20  2  0
 20 21  1  0
 21 22  2  0
 22 23  1  0
 23 24  2  0
 24  3  1  0
 15 10  1  0
 24 19  1  0
 18 13  1  0
  2 25  1  0
  4 26  1  0
  6 27  1  0
  6 28  1  0
  9 29  1  0
 11 30  1  0
 12 31  1  0
 15 32  1  0
 17 33  1  0
 17 34  1  0
 20 35  1  0
 21 36  1  0
 22 37  1  0
 23 38  1  0
M  END
>  <Energy>  (296) 
1755.9795257452722

>  <compound_id>  (296) 
5021

>  <target_id>  (296) 
1

>  <reference_id>  (296) 
13

>  <inspiration_ids>  (296) 
[39, 13]

>  <energy_score>  (296) 
1659.6229993313918

>  <distance_score>  (296) 
7.675513239397557

>  <path>  (296) 
/opt/xchem-fragalysis-2/maxwin/BulkDock/SCRATCH/511018/C5021-P13/C5021-P13.minimised.mol

>  <scratch_subdir>  (296) 
/opt/xchem-fragalysis-2/maxwin/BulkDock/SCRATCH/511018/C5021-P13

>  <fragmenstein_runtime>  (296) 
19.68218469619751

>  <fragmenstein_outcome>  (296) 
too moved

>  <fragmenstein_mode>  (296) 
expansion

>  <fragmenstein_error>  (296) 


$$$$
C5024-P39
     RDKit          3D

 46 49  0  0  0  0  0  0  0  0999 V2000
   -3.5719  -13.2221   29.4805 O   0  0  0  0  0  0  0  0  0  0  0  0
   -4.6594  -13.0981   30.0349 C   0  0  0  0  0  0  0  0  0  0  0  0
   -6.0450  -14.2462   29.9975 N   0  0  0  0  0  0  0  0  0  0  0  0
   -6.2965  -15.9092   28.9959 C   0  0  0  0  0  0  0  0  0  0  0  0
   -7.8132  -17.2850   28.3592 C   0  0  0  0  0  0  0  0  0  0  0  0
   -8.4843  -19.2533   28.3376 C   0  0  0  0  0  0  0  0  0  0  0  0
   -7.6357  -20.4057   27.7699 C   0  0  0  0  0  0  0  0  0  0  0  0
   -8.3558  -21.9149   27.5768 N   0  0  0  0  0  0  0  0  0  0  0  0
   -9.7174  -21.9804   27.9830 C   0  0  0  0  0  0  0  0  0  0  0  0
  -10.5678  -23.1324   27.9902 C   0  0  0  0  0  0  0  0  0  0  0  0
  -11.7163  -23.1368   28.7558 C   0  0  0  0  0  0  0  0  0  0  0  0
  -11.8770  -22.1057   29.6377 C   0  0  0  0  0  0  0  0  0  0  0  0
  -10.9932  -21.0058   29.5765 C   0  0  0  0  0  0  0  0  0  0  0  0
   -9.9871  -20.6682   28.4938 C   0  0  0  0  0  0  0  0  0  0  0  0
   -4.6741  -11.6999   30.9126 C   0  0  0  0  0  0  0  0  0  0  0  0
   -5.7153  -11.4411   31.4620 O   0  0  0  0  0  0  0  0  0  0  0  0
   -3.1584  -10.8007   31.0358 N   0  0  0  0  0  0  0  0  0  0  0  0
   -2.7465   -9.4850   31.9899 C   0  0  0  0  0  0  0  0  0  0  0  0
   -1.7544   -8.2452   31.6457 C   0  0  0  0  0  0  0  0  0  0  0  0
   -0.9037   -8.0896   30.5180 C   0  0  0  0  0  0  0  0  0  0  0  0
   -0.3673   -6.8414   30.1141 C   0  0  0  0  0  0  0  0  0  0  0  0
   -0.4942   -5.7670   30.9435 C   0  0  0  0  0  0  0  0  0  0  0  0
   -1.1174   -5.9263   32.1460 C   0  0  0  0  0  0  0  0  0  0  0  0
   -1.7130   -7.1398   32.5303 C   0  0  0  0  0  0  0  0  0  0  0  0
   -1.1472   -4.7526   32.8369 O   0  0  0  0  0  0  0  0  0  0  0  0
   -0.5438   -3.8387   31.8944 C   0  0  0  0  0  0  0  0  0  0  0  0
   -0.0812   -4.4971   30.7018 O   0  0  0  0  0  0  0  0  0  0  0  0
   -6.7745  -13.9178   30.6133 H   0  0  0  0  0  0  0  0  0  0  0  0
   -6.7167  -15.0754   28.4294 H   0  0  0  0  0  0  0  0  0  0  0  0
   -5.3499  -16.3752   29.2496 H   0  0  0  0  0  0  0  0  0  0  0  0
   -6.7932  -17.5185   28.2299 H   0  0  0  0  0  0  0  0  0  0  0  0
   -8.2737  -16.8332   27.4659 H   0  0  0  0  0  0  0  0  0  0  0  0
   -6.6835  -20.1047   27.2116 H   0  0  0  0  0  0  0  0  0  0  0  0
   -7.8031  -22.6949   27.2589 H   0  0  0  0  0  0  0  0  0  0  0  0
  -10.2687  -24.0334   27.4604 H   0  0  0  0  0  0  0  0  0  0  0  0
  -12.3492  -24.0170   28.8005 H   0  0  0  0  0  0  0  0  0  0  0  0
  -12.5787  -22.2048   30.4622 H   0  0  0  0  0  0  0  0  0  0  0  0
  -10.8698  -20.5538   30.5521 H   0  0  0  0  0  0  0  0  0  0  0  0
   -2.4784  -11.1981   30.4042 H   0  0  0  0  0  0  0  0  0  0  0  0
   -2.2632   -9.9098   32.8725 H   0  0  0  0  0  0  0  0  0  0  0  0
   -3.7128   -9.0638   32.2867 H   0  0  0  0  0  0  0  0  0  0  0  0
   -0.6688   -8.9412   29.8728 H   0  0  0  0  0  0  0  0  0  0  0  0
    0.1484   -6.7469   29.1658 H   0  0  0  0  0  0  0  0  0  0  0  0
   -2.1761   -7.2016   33.5089 H   0  0  0  0  0  0  0  0  0  0  0  0
    0.3064   -3.3464   32.3795 H   0  0  0  0  0  0  0  0  0  0  0  0
   -1.2843   -3.0792   31.6174 H   0  0  0  0  0  0  0  0  0  0  0  0
  1  2  2  0
  2  3  1  0
  3  4  1  0
  4  5  1  0
  5  6  1  0
  6  7  2  0
  7  8  1  0
  8  9  1  0
  9 10  2  0
 10 11  1  0
 11 12  2  0
 12 13  1  0
 13 14  2  0
  2 15  1  0
 15 16  2  0
 15 17  1  0
 17 18  1  0
 18 19  1  0
 19 20  2  0
 20 21  1  0
 21 22  2  0
 22 23  1  0
 23 24  2  0
 23 25  1  0
 25 26  1  0
 26 27  1  0
 14  6  1  0
 24 19  1  0
 14  9  1  0
 27 22  1  0
  3 28  1  0
  4 29  1  0
  4 30  1  0
  5 31  1  0
  5 32  1  0
  7 33  1  0
  8 34  1  0
 10 35  1  0
 11 36  1  0
 12 37  1  0
 13 38  1  0
 17 39  1  0
 18 40  1  0
 18 41  1  0
 20 42  1  0
 21 43  1  0
 24 44  1  0
 26 45  1  0
 26 46  1  0
M  END
>  <Energy>  (297) 
780.11045667967096

>  <compound_id>  (297) 
5024

>  <target_id>  (297) 
1

>  <reference_id>  (297) 
39

>  <inspiration_ids>  (297) 
[39, 13]

>  <energy_score>  (297) 
685.1334320586217

>  <distance_score>  (297) 
7.622522086999879

>  <path>  (297) 
/opt/xchem-fragalysis-2/maxwin/BulkDock/SCRATCH/511018/C5024-P39/C5024-P39.minimised.mol

>  <scratch_subdir>  (297) 
/opt/xchem-fragalysis-2/maxwin/BulkDock/SCRATCH/511018/C5024-P39

>  <fragmenstein_runtime>  (297) 
27.31107473373413

>  <fragmenstein_outcome>  (297) 
too moved

>  <fragmenstein_mode>  (297) 
expansion

>  <fragmenstein_error>  (297) 


$$$$
C5024-P13
     RDKit          3D

 46 49  0  0  0  0  0  0  0  0999 V2000
  -12.2986   -9.8794   34.3652 O   0  0  0  0  0  0  0  0  0  0  0  0
  -11.4402   -9.6893   35.1771 C   0  0  0  0  0  0  0  0  0  0  0  0
  -10.3750  -10.5555   35.6549 N   0  0  0  0  0  0  0  0  0  0  0  0
   -9.8804  -12.1114   35.1531 C   0  0  0  0  0  0  0  0  0  0  0  0
  -10.2050  -13.9157   33.7312 C   0  0  0  0  0  0  0  0  0  0  0  0
  -11.8918  -14.9738   32.9119 C   0  0  0  0  0  0  0  0  0  0  0  0
  -12.9758  -14.7188   31.9053 C   0  0  0  0  0  0  0  0  0  0  0  0
  -13.0607  -15.5466   30.5543 N   0  0  0  0  0  0  0  0  0  0  0  0
  -12.7848  -17.0716   30.5998 C   0  0  0  0  0  0  0  0  0  0  0  0
  -13.5694  -18.9213   29.8905 C   0  0  0  0  0  0  0  0  0  0  0  0
  -15.1807  -19.4960   31.0103 C   0  0  0  0  0  0  0  0  0  0  0  0
  -15.0939  -19.0809   32.8634 C   0  0  0  0  0  0  0  0  0  0  0  0
  -14.0253  -17.5981   33.5799 C   0  0  0  0  0  0  0  0  0  0  0  0
  -13.1169  -16.4492   32.4091 C   0  0  0  0  0  0  0  0  0  0  0  0
  -11.2776   -8.2619   35.8236 C   0  0  0  0  0  0  0  0  0  0  0  0
  -11.7092   -8.0729   36.9220 O   0  0  0  0  0  0  0  0  0  0  0  0
  -10.4952   -7.3904   34.9398 N   0  0  0  0  0  0  0  0  0  0  0  0
   -9.9241   -6.0666   35.1664 C   0  0  0  0  0  0  0  0  0  0  0  0
   -9.0837   -5.3804   34.0729 C   0  0  0  0  0  0  0  0  0  0  0  0
   -7.8506   -4.7481   34.4163 C   0  0  0  0  0  0  0  0  0  0  0  0
   -7.1580   -3.9014   33.5256 C   0  0  0  0  0  0  0  0  0  0  0  0
   -7.7148   -3.6843   32.2896 C   0  0  0  0  0  0  0  0  0  0  0  0
   -8.8986   -4.2836   31.9341 C   0  0  0  0  0  0  0  0  0  0  0  0
   -9.5909   -5.1422   32.7838 C   0  0  0  0  0  0  0  0  0  0  0  0
   -9.3252   -3.8824   30.7036 O   0  0  0  0  0  0  0  0  0  0  0  0
   -8.2678   -2.9859   30.3214 C   0  0  0  0  0  0  0  0  0  0  0  0
   -7.2375   -2.8566   31.3273 O   0  0  0  0  0  0  0  0  0  0  0  0
   -9.8820  -10.0903   36.4097 H   0  0  0  0  0  0  0  0  0  0  0  0
   -9.5558  -12.2113   36.2757 H   0  0  0  0  0  0  0  0  0  0  0  0
   -8.8541  -11.5200   34.9473 H   0  0  0  0  0  0  0  0  0  0  0  0
   -9.8688  -14.9333   34.0547 H   0  0  0  0  0  0  0  0  0  0  0  0
   -9.5065  -13.7465   32.9012 H   0  0  0  0  0  0  0  0  0  0  0  0
  -13.6999  -13.9216   31.7933 H   0  0  0  0  0  0  0  0  0  0  0  0
  -13.7152  -15.2495   29.8507 H   0  0  0  0  0  0  0  0  0  0  0  0
  -14.5355  -19.0450   29.3003 H   0  0  0  0  0  0  0  0  0  0  0  0
  -15.7200  -20.4352   30.8179 H   0  0  0  0  0  0  0  0  0  0  0  0
  -15.7083  -19.6521   33.5646 H   0  0  0  0  0  0  0  0  0  0  0  0
  -14.0119  -17.3487   34.6389 H   0  0  0  0  0  0  0  0  0  0  0  0
  -10.3714   -7.8526   34.0377 H   0  0  0  0  0  0  0  0  0  0  0  0
   -9.3203   -6.1639   36.0766 H   0  0  0  0  0  0  0  0  0  0  0  0
  -10.7565   -5.4017   35.4261 H   0  0  0  0  0  0  0  0  0  0  0  0
   -7.4520   -4.8753   35.4226 H   0  0  0  0  0  0  0  0  0  0  0  0
   -6.2437   -3.3982   33.8199 H   0  0  0  0  0  0  0  0  0  0  0  0
  -10.5450   -5.5580   32.4715 H   0  0  0  0  0  0  0  0  0  0  0  0
   -8.6948   -1.9960   30.1244 H   0  0  0  0  0  0  0  0  0  0  0  0
   -7.8227   -3.3741   29.3983 H   0  0  0  0  0  0  0  0  0  0  0  0
  1  2  2  0
  2  3  1  0
  3  4  1  0
  4  5  1  0
  5  6  1  0
  6  7  2  0
  7  8  1  0
  8  9  1  0
  9 10  2  0
 10 11  1  0
 11 12  2  0
 12 13  1  0
 13 14  2  0
  2 15  1  0
 15 16  2  0
 15 17  1  0
 17 18  1  0
 18 19  1  0
 19 20  2  0
 20 21  1  0
 21 22  2  0
 22 23  1  0
 23 24  2  0
 23 25  1  0
 25 26  1  0
 26 27  1  0
 14  6  1  0
 24 19  1  0
 14  9  1  0
 27 22  1  0
  3 28  1  0
  4 29  1  0
  4 30  1  0
  5 31  1  0
  5 32  1  0
  7 33  1  0
  8 34  1  0
 10 35  1  0
 11 36  1  0
 12 37  1  0
 13 38  1  0
 17 39  1  0
 18 40  1  0
 18 41  1  0
 20 42  1  0
 21 43  1  0
 24 44  1  0
 26 45  1  0
 26 46  1  0
M  END
>  <Energy>  (298) 
1475.9947295982399

>  <compound_id>  (298) 
5024

>  <target_id>  (298) 
1

>  <reference_id>  (298) 
13

>  <inspiration_ids>  (298) 
[39, 13]

>  <energy_score>  (298) 
1381.0177049772121

>  <distance_score>  (298) 
10.292247463661322

>  <path>  (298) 
/opt/xchem-fragalysis-2/maxwin/BulkDock/SCRATCH/511018/C5024-P13/C5024-P13.minimised.mol

>  <scratch_subdir>  (298) 
/opt/xchem-fragalysis-2/maxwin/BulkDock/SCRATCH/511018/C5024-P13

>  <fragmenstein_runtime>  (298) 
42.94925618171692

>  <fragmenstein_outcome>  (298) 
too moved

>  <fragmenstein_mode>  (298) 
expansion

>  <fragmenstein_error>  (298) 


$$$$
C5027-P39
     RDKit          3D

 40 44  0  0  0  0  0  0  0  0999 V2000
   -4.0654  -11.9078   28.0651 O   0  0  0  0  0  0  0  0  0  0  0  0
   -4.1582  -12.1863   29.2016 C   0  0  0  0  0  0  0  0  0  0  0  0
   -5.6494  -13.2746   29.6606 N   0  0  0  0  0  0  0  0  0  0  0  0
   -7.1536  -13.9280   28.6097 C   0  0  0  0  0  0  0  0  0  0  0  0
   -7.5054  -13.6004   27.2438 C   0  0  0  0  0  0  0  0  0  0  0  0
   -8.2576  -14.4341   26.2391 C   0  0  0  0  0  0  0  0  0  0  0  0
   -9.5748  -14.5467   26.3954 C   0  0  0  0  0  0  0  0  0  0  0  0
   -8.9148  -15.5347   26.9255 C   0  0  0  0  0  0  0  0  0  0  0  0
   -9.0624  -16.8499   26.6144 N   0  0  0  0  0  0  0  0  0  0  0  0
   -8.2663  -17.5031   27.4406 C   0  0  0  0  0  0  0  0  0  0  0  0
   -7.5810  -16.6196   28.1626 C   0  0  0  0  0  0  0  0  0  0  0  0
   -7.9014  -15.2076   28.1364 C   0  0  0  0  0  0  0  0  0  0  0  0
   -2.7755  -11.3524   30.1252 C   0  0  0  0  0  0  0  0  0  0  0  0
   -2.9139  -10.4094   31.2962 C   0  0  0  0  0  0  0  0  0  0  0  0
   -1.8135   -9.7278   31.4131 N   0  0  0  0  0  0  0  0  0  0  0  0
   -1.0387  -10.4022   30.4965 N   0  0  0  0  0  0  0  0  0  0  0  0
   -1.4651  -10.3988   29.2852 C   0  0  0  0  0  0  0  0  0  0  0  0
   -0.6520   -8.7073   29.1796 C   0  0  0  0  0  0  0  0  0  0  0  0
   -0.3858   -7.8821   30.3956 C   0  0  0  0  0  0  0  0  0  0  0  0
   -0.0373   -6.5395   30.5223 C   0  0  0  0  0  0  0  0  0  0  0  0
   -0.0094   -5.8516   29.3800 C   0  0  0  0  0  0  0  0  0  0  0  0
   -0.2021   -6.4955   28.1811 C   0  0  0  0  0  0  0  0  0  0  0  0
   -0.3783   -7.9139   28.0379 C   0  0  0  0  0  0  0  0  0  0  0  0
   -0.1977   -5.5527   27.1895 O   0  0  0  0  0  0  0  0  0  0  0  0
    0.1150   -4.3273   27.9347 C   0  0  0  0  0  0  0  0  0  0  0  0
    0.1784   -4.5191   29.3367 O   0  0  0  0  0  0  0  0  0  0  0  0
   -5.6704  -13.3762   30.6551 H   0  0  0  0  0  0  0  0  0  0  0  0
   -6.9435  -12.8124   26.7380 H   0  0  0  0  0  0  0  0  0  0  0  0
   -7.7414  -14.7632   25.3279 H   0  0  0  0  0  0  0  0  0  0  0  0
  -10.3002  -14.7369   25.6174 H   0  0  0  0  0  0  0  0  0  0  0  0
   -9.7436  -17.2108   25.9642 H   0  0  0  0  0  0  0  0  0  0  0  0
   -8.3668  -18.4802   27.8099 H   0  0  0  0  0  0  0  0  0  0  0  0
   -6.5813  -16.7213   28.5897 H   0  0  0  0  0  0  0  0  0  0  0  0
   -3.7370  -10.1168   31.9347 H   0  0  0  0  0  0  0  0  0  0  0  0
   -0.0365  -10.3466   30.4412 H   0  0  0  0  0  0  0  0  0  0  0  0
   -0.5100   -8.2219   31.4157 H   0  0  0  0  0  0  0  0  0  0  0  0
    0.1008   -6.0682   31.4879 H   0  0  0  0  0  0  0  0  0  0  0  0
   -0.3875   -8.3212   27.0311 H   0  0  0  0  0  0  0  0  0  0  0  0
    1.0876   -3.9496   27.6006 H   0  0  0  0  0  0  0  0  0  0  0  0
   -0.6517   -3.5718   27.7566 H   0  0  0  0  0  0  0  0  0  0  0  0
  1  2  2  0
  2  3  1  0
  3  4  1  0
  4  5  2  0
  5  6  1  0
  6  7  2  0
  7  8  1  0
  8  9  1  0
  9 10  1  0
 10 11  2  0
 11 12  1  0
  2 13  1  0
 13 14  1  0
 14 15  2  0
 15 16  1  0
 16 17  1  0
 17 18  1  0
 18 19  2  0
 19 20  1  0
 20 21  2  0
 21 22  1  0
 22 23  2  0
 22 24  1  0
 24 25  1  0
 25 26  1  0
 12  4  1  0
 17 13  2  0
 23 18  1  0
 12  8  2  0
 26 21  1  0
  3 27  1  0
  5 28  1  0
  6 29  1  0
  7 30  1  0
  9 31  1  0
 10 32  1  0
 11 33  1  0
 14 34  1  0
 16 35  1  0
 19 36  1  0
 20 37  1  0
 23 38  1  0
 25 39  1  0
 25 40  1  0
M  END
>  <Energy>  (299) 
791.06486346438521

>  <compound_id>  (299) 
5027

>  <target_id>  (299) 
1

>  <reference_id>  (299) 
39

>  <inspiration_ids>  (299) 
[39, 13]

>  <energy_score>  (299) 
695.1589857320362

>  <distance_score>  (299) 
9.071302510800164

>  <path>  (299) 
/opt/xchem-fragalysis-2/maxwin/BulkDock/SCRATCH/511018/C5027-P39/C5027-P39.minimised.mol

>  <scratch_subdir>  (299) 
/opt/xchem-fragalysis-2/maxwin/BulkDock/SCRATCH/511018/C5027-P39

>  <fragmenstein_runtime>  (299) 
36.88358473777771

>  <fragmenstein_outcome>  (299) 
too moved

>  <fragmenstein_mode>  (299) 
expansion

>  <fragmenstein_error>  (299) 


$$$$
C5027-P13
     RDKit          3D

 40 44  0  0  0  0  0  0  0  0999 V2000
   -7.2066  -14.3927   28.4718 O   0  0  0  0  0  0  0  0  0  0  0  0
   -6.3343  -14.7669   29.2557 C   0  0  0  0  0  0  0  0  0  0  0  0
   -5.6681  -16.3225   29.5058 N   0  0  0  0  0  0  0  0  0  0  0  0
   -5.9442  -17.8754   28.6149 C   0  0  0  0  0  0  0  0  0  0  0  0
   -7.0418  -18.6115   28.3371 C   0  0  0  0  0  0  0  0  0  0  0  0
   -6.7634  -19.8907   27.8499 C   0  0  0  0  0  0  0  0  0  0  0  0
   -5.5273  -20.5199   27.5157 C   0  0  0  0  0  0  0  0  0  0  0  0
   -4.6255  -19.6343   27.0736 C   0  0  0  0  0  0  0  0  0  0  0  0
   -3.5243  -19.8370   26.2990 N   0  0  0  0  0  0  0  0  0  0  0  0
   -2.7342  -18.7411   26.3756 C   0  0  0  0  0  0  0  0  0  0  0  0
   -3.3757  -17.8560   27.2114 C   0  0  0  0  0  0  0  0  0  0  0  0
   -4.6962  -18.3431   27.5752 C   0  0  0  0  0  0  0  0  0  0  0  0
   -5.7231  -13.5585   30.0246 C   0  0  0  0  0  0  0  0  0  0  0  0
   -6.5733  -13.4620   31.2263 C   0  0  0  0  0  0  0  0  0  0  0  0
   -6.7280  -12.2180   31.7735 N   0  0  0  0  0  0  0  0  0  0  0  0
   -5.9662  -11.1240   30.6804 N   0  0  0  0  0  0  0  0  0  0  0  0
   -4.7799  -12.0704   29.5721 C   0  0  0  0  0  0  0  0  0  0  0  0
   -2.8800  -11.4961   29.5821 C   0  0  0  0  0  0  0  0  0  0  0  0
   -2.0438  -11.1352   28.5819 C   0  0  0  0  0  0  0  0  0  0  0  0
   -0.7942   -9.8367   28.6056 C   0  0  0  0  0  0  0  0  0  0  0  0
   -0.3900   -8.9489   29.5562 C   0  0  0  0  0  0  0  0  0  0  0  0
   -0.9134   -9.2779   30.6998 C   0  0  0  0  0  0  0  0  0  0  0  0
   -1.8984  -10.3467   30.6516 C   0  0  0  0  0  0  0  0  0  0  0  0
   -0.6989   -8.3463   31.6646 O   0  0  0  0  0  0  0  0  0  0  0  0
    0.0646   -7.3678   30.9229 C   0  0  0  0  0  0  0  0  0  0  0  0
    0.3732   -7.8537   29.5941 O   0  0  0  0  0  0  0  0  0  0  0  0
   -4.9085  -16.2674   30.1688 H   0  0  0  0  0  0  0  0  0  0  0  0
   -8.0537  -18.3175   28.5134 H   0  0  0  0  0  0  0  0  0  0  0  0
   -7.5860  -20.5983   27.7990 H   0  0  0  0  0  0  0  0  0  0  0  0
   -5.4243  -21.5830   27.3371 H   0  0  0  0  0  0  0  0  0  0  0  0
   -3.2907  -20.6998   25.8270 H   0  0  0  0  0  0  0  0  0  0  0  0
   -1.7619  -18.7017   25.9035 H   0  0  0  0  0  0  0  0  0  0  0  0
   -2.8977  -16.9614   27.5754 H   0  0  0  0  0  0  0  0  0  0  0  0
   -7.2031  -14.2626   31.5451 H   0  0  0  0  0  0  0  0  0  0  0  0
   -5.4285  -10.6486   31.4222 H   0  0  0  0  0  0  0  0  0  0  0  0
   -2.3459  -11.4621   27.5544 H   0  0  0  0  0  0  0  0  0  0  0  0
   -0.3677   -9.4986   27.6856 H   0  0  0  0  0  0  0  0  0  0  0  0
   -2.3791   -9.9697   31.5761 H   0  0  0  0  0  0  0  0  0  0  0  0
   -0.5136   -6.4395   30.8474 H   0  0  0  0  0  0  0  0  0  0  0  0
    1.0021   -7.1716   31.4545 H   0  0  0  0  0  0  0  0  0  0  0  0
  1  2  2  0
  2  3  1  0
  3  4  1  0
  4  5  2  0
  5  6  1  0
  6  7  2  0
  7  8  1  0
  8  9  1  0
  9 10  1  0
 10 11  2  0
 11 12  1  0
  2 13  1  0
 13 14  1  0
 14 15  2  0
 15 16  1  0
 16 17  1  0
 17 18  1  0
 18 19  2  0
 19 20  1  0
 20 21  2  0
 21 22  1  0
 22 23  2  0
 22 24  1  0
 24 25  1  0
 25 26  1  0
 12  4  1  0
 17 13  2  0
 23 18  1  0
 12  8  2  0
 26 21  1  0
  3 27  1  0
  5 28  1  0
  6 29  1  0
  7 30  1  0
  9 31  1  0
 10 32  1  0
 11 33  1  0
 14 34  1  0
 16 35  1  0
 19 36  1  0
 20 37  1  0
 23 38  1  0
 25 39  1  0
 25 40  1  0
M  END
>  <Energy>  (300) 
659.30987344502432

>  <compound_id>  (300) 
5027

>  <target_id>  (300) 
1

>  <reference_id>  (300) 
13

>  <inspiration_ids>  (300) 
[39, 13]

>  <energy_score>  (300) 
563.4039957126718

>  <distance_score>  (300) 
9.815692674184737

>  <path>  (300) 
/opt/xchem-fragalysis-2/maxwin/BulkDock/SCRATCH/511018/C5027-P13/C5027-P13.minimised.mol

>  <scratch_subdir>  (300) 
/opt/xchem-fragalysis-2/maxwin/BulkDock/SCRATCH/511018/C5027-P13

>  <fragmenstein_runtime>  (300) 
27.6529061794281

>  <fragmenstein_outcome>  (300) 
too moved

>  <fragmenstein_mode>  (300) 
expansion

>  <fragmenstein_error>  (300) 


$$$$
C5034-P39
     RDKit          3D

 56 58  0  0  0  0  0  0  0  0999 V2000
   -2.0926   -0.7628   31.4692 C   0  0  0  0  0  0  0  0  0  0  0  0
   -0.6315   -0.9950   31.1530 C   0  0  0  0  0  0  0  0  0  0  0  0
    0.1082   -2.2437   32.1949 S   0  0  0  0  0  0  0  0  0  0  0  0
    1.5092   -2.3620   31.8578 O   0  0  0  0  0  0  0  0  0  0  0  0
   -0.3299   -2.0496   33.5568 O   0  0  0  0  0  0  0  0  0  0  0  0
   -0.6006   -3.6699   31.6080 N   0  0  0  0  0  0  0  0  0  0  0  0
   -0.3944   -4.8315   32.5294 C   0  0  0  0  0  0  0  0  0  0  0  0
   -0.9402   -6.1068   31.8773 C   0  0  0  0  0  0  0  0  0  0  0  0
   -1.1701   -7.2740   32.8551 C   0  0  0  0  0  0  0  0  0  0  0  0
   -1.6617   -8.5974   32.2056 C   0  0  0  0  0  0  0  0  0  0  0  0
   -0.8295   -9.0643   31.0014 C   0  0  0  0  0  0  0  0  0  0  0  0
   -1.3592  -10.2771   30.0167 C   0  0  0  0  0  0  0  0  0  0  0  0
   -0.7159  -10.3828   28.9910 O   0  0  0  0  0  0  0  0  0  0  0  0
   -2.6702  -11.0365   30.4914 N   0  0  0  0  0  0  0  0  0  0  0  0
   -3.7538  -12.2533   29.6130 C   0  0  0  0  0  0  0  0  0  0  0  0
   -5.6163  -12.4917   29.1414 C   0  0  0  0  0  0  0  0  0  0  0  0
   -7.1842  -13.6055   28.3500 C   0  0  0  0  0  0  0  0  0  0  0  0
   -8.1001  -13.1670   27.3661 C   0  0  0  0  0  0  0  0  0  0  0  0
   -9.0874  -13.9883   27.7143 N   0  0  0  0  0  0  0  0  0  0  0  0
   -8.1597  -15.0448   27.7969 C   0  0  0  0  0  0  0  0  0  0  0  0
   -8.3576  -16.4583   27.4860 C   0  0  0  0  0  0  0  0  0  0  0  0
   -9.3804  -16.4709   26.6701 C   0  0  0  0  0  0  0  0  0  0  0  0
   -8.8535  -15.8308   25.6825 C   0  0  0  0  0  0  0  0  0  0  0  0
   -7.8170  -14.9368   25.7959 C   0  0  0  0  0  0  0  0  0  0  0  0
   -7.3675  -14.2316   27.0152 C   0  0  0  0  0  0  0  0  0  0  0  0
   -0.6979   -7.7695   30.0567 C   0  0  0  0  0  0  0  0  0  0  0  0
   -0.1046   -6.5223   30.6757 C   0  0  0  0  0  0  0  0  0  0  0  0
   -2.5033    0.0049   30.8069 H   0  0  0  0  0  0  0  0  0  0  0  0
   -2.2262   -0.4211   32.5005 H   0  0  0  0  0  0  0  0  0  0  0  0
   -2.6751   -1.6807   31.3449 H   0  0  0  0  0  0  0  0  0  0  0  0
   -0.4871   -1.3010   30.1125 H   0  0  0  0  0  0  0  0  0  0  0  0
   -0.0608   -0.0755   31.3185 H   0  0  0  0  0  0  0  0  0  0  0  0
   -0.1731   -3.8504   30.6955 H   0  0  0  0  0  0  0  0  0  0  0  0
   -0.9321   -4.6385   33.4631 H   0  0  0  0  0  0  0  0  0  0  0  0
    0.6714   -4.9500   32.7530 H   0  0  0  0  0  0  0  0  0  0  0  0
   -1.9213   -5.8550   31.5025 H   0  0  0  0  0  0  0  0  0  0  0  0
   -0.2687   -7.4719   33.4330 H   0  0  0  0  0  0  0  0  0  0  0  0
   -1.9083   -6.9690   33.6056 H   0  0  0  0  0  0  0  0  0  0  0  0
   -1.6632   -9.3850   32.9679 H   0  0  0  0  0  0  0  0  0  0  0  0
   -2.7095   -8.4607   31.9179 H   0  0  0  0  0  0  0  0  0  0  0  0
    0.1655   -9.3732   31.3385 H   0  0  0  0  0  0  0  0  0  0  0  0
   -2.9896  -10.6429   31.3663 H   0  0  0  0  0  0  0  0  0  0  0  0
   -4.2447  -12.2768   30.5741 H   0  0  0  0  0  0  0  0  0  0  0  0
   -3.2103  -13.1772   29.4636 H   0  0  0  0  0  0  0  0  0  0  0  0
   -5.5708  -13.3718   29.8248 H   0  0  0  0  0  0  0  0  0  0  0  0
   -5.2786  -12.1044   28.1861 H   0  0  0  0  0  0  0  0  0  0  0  0
   -8.1901  -12.2781   26.7212 H   0  0  0  0  0  0  0  0  0  0  0  0
  -10.0695  -14.0238   27.4671 H   0  0  0  0  0  0  0  0  0  0  0  0
   -7.9471  -17.2586   28.0733 H   0  0  0  0  0  0  0  0  0  0  0  0
  -10.1133  -17.1851   26.4945 H   0  0  0  0  0  0  0  0  0  0  0  0
   -9.1599  -16.1172   24.7392 H   0  0  0  0  0  0  0  0  0  0  0  0
   -7.3757  -14.8226   24.8578 H   0  0  0  0  0  0  0  0  0  0  0  0
   -1.6779   -7.4121   29.7320 H   0  0  0  0  0  0  0  0  0  0  0  0
   -0.2241   -8.0121   29.1037 H   0  0  0  0  0  0  0  0  0  0  0  0
    0.9394   -6.6518   30.9349 H   0  0  0  0  0  0  0  0  0  0  0  0
   -0.1159   -5.7378   29.9100 H   0  0  0  0  0  0  0  0  0  0  0  0
  1  2  1  0
  2  3  1  0
  3  4  2  0
  3  5  2  0
  3  6  1  0
  6  7  1  0
  7  8  1  0
  8  9  1  0
  9 10  1  0
 10 11  1  0
 11 12  1  0
 12 13  2  0
 12 14  1  0
 14 15  1  0
 15 16  1  0
 16 17  1  0
 17 18  2  0
 18 19  1  0
 19 20  1  0
 20 21  2  0
 21 22  1  0
 22 23  2  0
 23 24  1  0
 24 25  2  0
 11 26  1  0
 26 27  1  0
 27  8  1  0
 25 17  1  0
 25 20  1  0
  1 28  1  0
  1 29  1  0
  1 30  1  0
  2 31  1  0
  2 32  1  0
  6 33  1  0
  7 34  1  0
  7 35  1  0
  8 36  1  0
  9 37  1  0
  9 38  1  0
 10 39  1  0
 10 40  1  0
 11 41  1  0
 14 42  1  0
 15 43  1  0
 15 44  1  0
 16 45  1  0
 16 46  1  0
 18 47  1  0
 19 48  1  0
 21 49  1  0
 22 50  1  0
 23 51  1  0
 24 52  1  0
 26 53  1  0
 26 54  1  0
 27 55  1  0
 27 56  1  0
M  END
>  <Energy>  (301) 
591.40264279760243

>  <compound_id>  (301) 
5034

>  <target_id>  (301) 
1

>  <reference_id>  (301) 
39

>  <inspiration_ids>  (301) 
[39, 13]

>  <energy_score>  (301) 
586.4808010696879

>  <distance_score>  (301) 
9.19903260636056

>  <path>  (301) 
/opt/xchem-fragalysis-2/maxwin/BulkDock/SCRATCH/511018/C5034-P39/C5034-P39.minimised.mol

>  <scratch_subdir>  (301) 
/opt/xchem-fragalysis-2/maxwin/BulkDock/SCRATCH/511018/C5034-P39

>  <fragmenstein_runtime>  (301) 
30.982925415039062

>  <fragmenstein_outcome>  (301) 
too moved

>  <fragmenstein_mode>  (301) 
expansion

>  <fragmenstein_error>  (301) 


$$$$
C5034-P13
     RDKit          3D

 56 58  0  0  0  0  0  0  0  0999 V2000
   -1.9089   -1.7203   31.4839 C   0  0  0  0  0  0  0  0  0  0  0  0
   -2.4115   -2.1011   32.8633 C   0  0  0  0  0  0  0  0  0  0  0  0
   -4.1704   -1.7956   33.0743 S   0  0  0  0  0  0  0  0  0  0  0  0
   -4.5491   -2.0512   34.4424 O   0  0  0  0  0  0  0  0  0  0  0  0
   -4.4335   -0.4861   32.5149 O   0  0  0  0  0  0  0  0  0  0  0  0
   -4.8867   -2.9900   32.0559 N   0  0  0  0  0  0  0  0  0  0  0  0
   -6.3907   -3.1221   32.1155 C   0  0  0  0  0  0  0  0  0  0  0  0
   -6.9665   -4.3640   31.3375 C   0  0  0  0  0  0  0  0  0  0  0  0
   -8.3839   -4.7247   31.8010 C   0  0  0  0  0  0  0  0  0  0  0  0
   -9.1466   -5.7021   30.8729 C   0  0  0  0  0  0  0  0  0  0  0  0
   -8.3064   -6.5695   29.8970 C   0  0  0  0  0  0  0  0  0  0  0  0
   -7.6656   -7.8387   30.5864 C   0  0  0  0  0  0  0  0  0  0  0  0
   -7.7199   -7.8283   31.7901 O   0  0  0  0  0  0  0  0  0  0  0  0
   -7.1915   -8.8804   29.6565 N   0  0  0  0  0  0  0  0  0  0  0  0
   -6.7299  -10.2744   29.9112 C   0  0  0  0  0  0  0  0  0  0  0  0
   -5.7732  -11.7866   28.9000 C   0  0  0  0  0  0  0  0  0  0  0  0
   -6.8763  -12.9768   28.0959 C   0  0  0  0  0  0  0  0  0  0  0  0
   -7.2696  -13.1063   26.8161 C   0  0  0  0  0  0  0  0  0  0  0  0
   -8.5004  -13.5882   27.2132 N   0  0  0  0  0  0  0  0  0  0  0  0
   -8.1884  -14.6463   27.8849 C   0  0  0  0  0  0  0  0  0  0  0  0
   -8.4986  -15.8940   27.4350 C   0  0  0  0  0  0  0  0  0  0  0  0
   -7.6073  -16.5760   28.1968 C   0  0  0  0  0  0  0  0  0  0  0  0
   -6.2640  -16.0008   29.2634 C   0  0  0  0  0  0  0  0  0  0  0  0
   -6.2823  -14.6864   29.6984 C   0  0  0  0  0  0  0  0  0  0  0  0
   -7.1523  -14.1297   28.7225 C   0  0  0  0  0  0  0  0  0  0  0  0
   -7.4082   -5.6288   29.1129 C   0  0  0  0  0  0  0  0  0  0  0  0
   -6.9943   -4.3085   29.8082 C   0  0  0  0  0  0  0  0  0  0  0  0
   -0.8269   -1.8734   31.4227 H   0  0  0  0  0  0  0  0  0  0  0  0
   -2.1140   -0.6699   31.2558 H   0  0  0  0  0  0  0  0  0  0  0  0
   -2.3771   -2.3330   30.7087 H   0  0  0  0  0  0  0  0  0  0  0  0
   -1.9068   -1.4942   33.6224 H   0  0  0  0  0  0  0  0  0  0  0  0
   -2.1983   -3.1483   33.0738 H   0  0  0  0  0  0  0  0  0  0  0  0
   -4.5797   -2.8384   31.1039 H   0  0  0  0  0  0  0  0  0  0  0  0
   -6.6622   -3.2344   33.1720 H   0  0  0  0  0  0  0  0  0  0  0  0
   -6.8610   -2.2071   31.7439 H   0  0  0  0  0  0  0  0  0  0  0  0
   -6.3794   -5.2172   31.6281 H   0  0  0  0  0  0  0  0  0  0  0  0
   -8.9879   -3.8149   31.9113 H   0  0  0  0  0  0  0  0  0  0  0  0
   -8.3228   -5.1659   32.8044 H   0  0  0  0  0  0  0  0  0  0  0  0
   -9.7955   -6.3395   31.4867 H   0  0  0  0  0  0  0  0  0  0  0  0
   -9.8334   -5.0984   30.2622 H   0  0  0  0  0  0  0  0  0  0  0  0
   -9.0205   -7.0131   29.1866 H   0  0  0  0  0  0  0  0  0  0  0  0
   -7.2137   -8.5172   28.7127 H   0  0  0  0  0  0  0  0  0  0  0  0
   -7.6966  -10.4067   30.4258 H   0  0  0  0  0  0  0  0  0  0  0  0
   -6.3845  -10.4024   30.9805 H   0  0  0  0  0  0  0  0  0  0  0  0
   -5.2056  -11.7975   27.9327 H   0  0  0  0  0  0  0  0  0  0  0  0
   -4.9981  -12.2419   29.4933 H   0  0  0  0  0  0  0  0  0  0  0  0
   -6.9934  -12.4229   26.0255 H   0  0  0  0  0  0  0  0  0  0  0  0
   -9.4467  -13.3422   26.9723 H   0  0  0  0  0  0  0  0  0  0  0  0
   -9.2576  -16.1904   26.7379 H   0  0  0  0  0  0  0  0  0  0  0  0
   -8.0698  -17.5626   28.2786 H   0  0  0  0  0  0  0  0  0  0  0  0
   -5.6674  -16.7070   29.8043 H   0  0  0  0  0  0  0  0  0  0  0  0
   -5.7039  -14.2476   30.4716 H   0  0  0  0  0  0  0  0  0  0  0  0
   -6.5560   -6.1957   28.7808 H   0  0  0  0  0  0  0  0  0  0  0  0
   -7.9369   -5.3476   28.1927 H   0  0  0  0  0  0  0  0  0  0  0  0
   -6.0337   -4.0127   29.4019 H   0  0  0  0  0  0  0  0  0  0  0  0
   -7.7131   -3.5359   29.5035 H   0  0  0  0  0  0  0  0  0  0  0  0
  1  2  1  0
  2  3  1  0
  3  4  2  0
  3  5  2  0
  3  6  1  0
  6  7  1  0
  7  8  1  0
  8  9  1  0
  9 10  1  0
 10 11  1  0
 11 12  1  0
 12 13  2  0
 12 14  1  0
 14 15  1  0
 15 16  1  0
 16 17  1  0
 17 18  2  0
 18 19  1  0
 19 20  1  0
 20 21  2  0
 21 22  1  0
 22 23  2  0
 23 24  1  0
 24 25  2  0
 11 26  1  0
 26 27  1  0
 27  8  1  0
 25 17  1  0
 25 20  1  0
  1 28  1  0
  1 29  1  0
  1 30  1  0
  2 31  1  0
  2 32  1  0
  6 33  1  0
  7 34  1  0
  7 35  1  0
  8 36  1  0
  9 37  1  0
  9 38  1  0
 10 39  1  0
 10 40  1  0
 11 41  1  0
 14 42  1  0
 15 43  1  0
 15 44  1  0
 16 45  1  0
 16 46  1  0
 18 47  1  0
 19 48  1  0
 21 49  1  0
 22 50  1  0
 23 51  1  0
 24 52  1  0
 26 53  1  0
 26 54  1  0
 27 55  1  0
 27 56  1  0
M  END
>  <Energy>  (302) 
270.19329111462019

>  <compound_id>  (302) 
5034

>  <target_id>  (302) 
1

>  <reference_id>  (302) 
13

>  <inspiration_ids>  (302) 
[39, 13]

>  <energy_score>  (302) 
265.271449386716

>  <distance_score>  (302) 
9.421900737303833

>  <path>  (302) 
/opt/xchem-fragalysis-2/maxwin/BulkDock/SCRATCH/511018/C5034-P13/C5034-P13.minimised.mol

>  <scratch_subdir>  (302) 
/opt/xchem-fragalysis-2/maxwin/BulkDock/SCRATCH/511018/C5034-P13

>  <fragmenstein_runtime>  (302) 
44.570881843566895

>  <fragmenstein_outcome>  (302) 
too moved

>  <fragmenstein_mode>  (302) 
expansion

>  <fragmenstein_error>  (302) 


$$$$
C5034-P39
     RDKit          3D

 56 58  0  0  0  0  0  0  0  0999 V2000
   -2.0926   -0.7628   31.4692 C   0  0  0  0  0  0  0  0  0  0  0  0
   -0.6315   -0.9950   31.1530 C   0  0  0  0  0  0  0  0  0  0  0  0
    0.1082   -2.2437   32.1949 S   0  0  0  0  0  0  0  0  0  0  0  0
    1.5092   -2.3620   31.8578 O   0  0  0  0  0  0  0  0  0  0  0  0
   -0.3299   -2.0496   33.5568 O   0  0  0  0  0  0  0  0  0  0  0  0
   -0.6006   -3.6699   31.6080 N   0  0  0  0  0  0  0  0  0  0  0  0
   -0.3944   -4.8315   32.5294 C   0  0  0  0  0  0  0  0  0  0  0  0
   -0.9402   -6.1068   31.8773 C   0  0  0  0  0  0  0  0  0  0  0  0
   -1.1701   -7.2740   32.8551 C   0  0  0  0  0  0  0  0  0  0  0  0
   -1.6617   -8.5974   32.2056 C   0  0  0  0  0  0  0  0  0  0  0  0
   -0.8295   -9.0643   31.0014 C   0  0  0  0  0  0  0  0  0  0  0  0
   -1.3592  -10.2771   30.0167 C   0  0  0  0  0  0  0  0  0  0  0  0
   -0.7159  -10.3828   28.9910 O   0  0  0  0  0  0  0  0  0  0  0  0
   -2.6702  -11.0365   30.4914 N   0  0  0  0  0  0  0  0  0  0  0  0
   -3.7538  -12.2533   29.6130 C   0  0  0  0  0  0  0  0  0  0  0  0
   -5.6163  -12.4917   29.1414 C   0  0  0  0  0  0  0  0  0  0  0  0
   -7.1842  -13.6055   28.3500 C   0  0  0  0  0  0  0  0  0  0  0  0
   -8.1001  -13.1670   27.3661 C   0  0  0  0  0  0  0  0  0  0  0  0
   -9.0874  -13.9883   27.7143 N   0  0  0  0  0  0  0  0  0  0  0  0
   -8.1597  -15.0448   27.7969 C   0  0  0  0  0  0  0  0  0  0  0  0
   -8.3576  -16.4583   27.4860 C   0  0  0  0  0  0  0  0  0  0  0  0
   -9.3804  -16.4709   26.6701 C   0  0  0  0  0  0  0  0  0  0  0  0
   -8.8535  -15.8308   25.6825 C   0  0  0  0  0  0  0  0  0  0  0  0
   -7.8170  -14.9368   25.7959 C   0  0  0  0  0  0  0  0  0  0  0  0
   -7.3675  -14.2316   27.0152 C   0  0  0  0  0  0  0  0  0  0  0  0
   -0.6979   -7.7695   30.0567 C   0  0  0  0  0  0  0  0  0  0  0  0
   -0.1046   -6.5223   30.6757 C   0  0  0  0  0  0  0  0  0  0  0  0
   -2.5033    0.0049   30.8069 H   0  0  0  0  0  0  0  0  0  0  0  0
   -2.2262   -0.4211   32.5005 H   0  0  0  0  0  0  0  0  0  0  0  0
   -2.6751   -1.6807   31.3449 H   0  0  0  0  0  0  0  0  0  0  0  0
   -0.4871   -1.3010   30.1125 H   0  0  0  0  0  0  0  0  0  0  0  0
   -0.0608   -0.0755   31.3185 H   0  0  0  0  0  0  0  0  0  0  0  0
   -0.1731   -3.8504   30.6955 H   0  0  0  0  0  0  0  0  0  0  0  0
   -0.9321   -4.6385   33.4631 H   0  0  0  0  0  0  0  0  0  0  0  0
    0.6714   -4.9500   32.7530 H   0  0  0  0  0  0  0  0  0  0  0  0
   -1.9213   -5.8550   31.5025 H   0  0  0  0  0  0  0  0  0  0  0  0
   -0.2687   -7.4719   33.4330 H   0  0  0  0  0  0  0  0  0  0  0  0
   -1.9083   -6.9690   33.6056 H   0  0  0  0  0  0  0  0  0  0  0  0
   -1.6632   -9.3850   32.9679 H   0  0  0  0  0  0  0  0  0  0  0  0
   -2.7095   -8.4607   31.9179 H   0  0  0  0  0  0  0  0  0  0  0  0
    0.1655   -9.3732   31.3385 H   0  0  0  0  0  0  0  0  0  0  0  0
   -2.9896  -10.6429   31.3663 H   0  0  0  0  0  0  0  0  0  0  0  0
   -4.2447  -12.2768   30.5741 H   0  0  0  0  0  0  0  0  0  0  0  0
   -3.2103  -13.1772   29.4636 H   0  0  0  0  0  0  0  0  0  0  0  0
   -5.5708  -13.3718   29.8248 H   0  0  0  0  0  0  0  0  0  0  0  0
   -5.2786  -12.1044   28.1861 H   0  0  0  0  0  0  0  0  0  0  0  0
   -8.1901  -12.2781   26.7212 H   0  0  0  0  0  0  0  0  0  0  0  0
  -10.0695  -14.0238   27.4671 H   0  0  0  0  0  0  0  0  0  0  0  0
   -7.9471  -17.2586   28.0733 H   0  0  0  0  0  0  0  0  0  0  0  0
  -10.1133  -17.1851   26.4945 H   0  0  0  0  0  0  0  0  0  0  0  0
   -9.1599  -16.1172   24.7392 H   0  0  0  0  0  0  0  0  0  0  0  0
   -7.3757  -14.8226   24.8578 H   0  0  0  0  0  0  0  0  0  0  0  0
   -1.6779   -7.4121   29.7320 H   0  0  0  0  0  0  0  0  0  0  0  0
   -0.2241   -8.0121   29.1037 H   0  0  0  0  0  0  0  0  0  0  0  0
    0.9394   -6.6518   30.9349 H   0  0  0  0  0  0  0  0  0  0  0  0
   -0.1159   -5.7378   29.9100 H   0  0  0  0  0  0  0  0  0  0  0  0
  1  2  1  0
  2  3  1  0
  3  4  2  0
  3  5  2  0
  3  6  1  0
  6  7  1  0
  7  8  1  0
  8  9  1  0
  9 10  1  0
 10 11  1  0
 11 12  1  0
 12 13  2  0
 12 14  1  0
 14 15  1  0
 15 16  1  0
 16 17  1  0
 17 18  2  0
 18 19  1  0
 19 20  1  0
 20 21  2  0
 21 22  1  0
 22 23  2  0
 23 24  1  0
 24 25  2  0
 11 26  1  0
 26 27  1  0
 27  8  1  0
 25 17  1  0
 25 20  1  0
  1 28  1  0
  1 29  1  0
  1 30  1  0
  2 31  1  0
  2 32  1  0
  6 33  1  0
  7 34  1  0
  7 35  1  0
  8 36  1  0
  9 37  1  0
  9 38  1  0
 10 39  1  0
 10 40  1  0
 11 41  1  0
 14 42  1  0
 15 43  1  0
 15 44  1  0
 16 45  1  0
 16 46  1  0
 18 47  1  0
 19 48  1  0
 21 49  1  0
 22 50  1  0
 23 51  1  0
 24 52  1  0
 26 53  1  0
 26 54  1  0
 27 55  1  0
 27 56  1  0
M  END
>  <Energy>  (303) 
591.40264279760243

>  <compound_id>  (303) 
5034

>  <target_id>  (303) 
1

>  <reference_id>  (303) 
39

>  <inspiration_ids>  (303) 
[39, 13]

>  <energy_score>  (303) 
586.4808010696879

>  <distance_score>  (303) 
9.19903260636056

>  <path>  (303) 
/opt/xchem-fragalysis-2/maxwin/BulkDock/SCRATCH/511018/C5034-P39/C5034-P39.minimised.mol

>  <scratch_subdir>  (303) 
/opt/xchem-fragalysis-2/maxwin/BulkDock/SCRATCH/511018/C5034-P39

>  <fragmenstein_runtime>  (303) 
30.502824783325195

>  <fragmenstein_outcome>  (303) 
too moved

>  <fragmenstein_mode>  (303) 
expansion

>  <fragmenstein_error>  (303) 


$$$$
C5034-P13
     RDKit          3D

 56 58  0  0  0  0  0  0  0  0999 V2000
   -1.9089   -1.7203   31.4839 C   0  0  0  0  0  0  0  0  0  0  0  0
   -2.4115   -2.1011   32.8633 C   0  0  0  0  0  0  0  0  0  0  0  0
   -4.1704   -1.7956   33.0743 S   0  0  0  0  0  0  0  0  0  0  0  0
   -4.5491   -2.0512   34.4424 O   0  0  0  0  0  0  0  0  0  0  0  0
   -4.4335   -0.4861   32.5149 O   0  0  0  0  0  0  0  0  0  0  0  0
   -4.8867   -2.9900   32.0559 N   0  0  0  0  0  0  0  0  0  0  0  0
   -6.3907   -3.1221   32.1155 C   0  0  0  0  0  0  0  0  0  0  0  0
   -6.9665   -4.3640   31.3375 C   0  0  0  0  0  0  0  0  0  0  0  0
   -8.3839   -4.7247   31.8010 C   0  0  0  0  0  0  0  0  0  0  0  0
   -9.1466   -5.7021   30.8729 C   0  0  0  0  0  0  0  0  0  0  0  0
   -8.3064   -6.5695   29.8970 C   0  0  0  0  0  0  0  0  0  0  0  0
   -7.6656   -7.8387   30.5864 C   0  0  0  0  0  0  0  0  0  0  0  0
   -7.7199   -7.8283   31.7901 O   0  0  0  0  0  0  0  0  0  0  0  0
   -7.1915   -8.8804   29.6565 N   0  0  0  0  0  0  0  0  0  0  0  0
   -6.7299  -10.2744   29.9112 C   0  0  0  0  0  0  0  0  0  0  0  0
   -5.7732  -11.7866   28.9000 C   0  0  0  0  0  0  0  0  0  0  0  0
   -6.8763  -12.9768   28.0959 C   0  0  0  0  0  0  0  0  0  0  0  0
   -7.2696  -13.1063   26.8161 C   0  0  0  0  0  0  0  0  0  0  0  0
   -8.5004  -13.5882   27.2132 N   0  0  0  0  0  0  0  0  0  0  0  0
   -8.1884  -14.6463   27.8849 C   0  0  0  0  0  0  0  0  0  0  0  0
   -8.4986  -15.8940   27.4350 C   0  0  0  0  0  0  0  0  0  0  0  0
   -7.6073  -16.5760   28.1968 C   0  0  0  0  0  0  0  0  0  0  0  0
   -6.2640  -16.0008   29.2634 C   0  0  0  0  0  0  0  0  0  0  0  0
   -6.2823  -14.6864   29.6984 C   0  0  0  0  0  0  0  0  0  0  0  0
   -7.1523  -14.1297   28.7225 C   0  0  0  0  0  0  0  0  0  0  0  0
   -7.4082   -5.6288   29.1129 C   0  0  0  0  0  0  0  0  0  0  0  0
   -6.9943   -4.3085   29.8082 C   0  0  0  0  0  0  0  0  0  0  0  0
   -0.8269   -1.8734   31.4227 H   0  0  0  0  0  0  0  0  0  0  0  0
   -2.1140   -0.6699   31.2558 H   0  0  0  0  0  0  0  0  0  0  0  0
   -2.3771   -2.3330   30.7087 H   0  0  0  0  0  0  0  0  0  0  0  0
   -1.9068   -1.4942   33.6224 H   0  0  0  0  0  0  0  0  0  0  0  0
   -2.1983   -3.1483   33.0738 H   0  0  0  0  0  0  0  0  0  0  0  0
   -4.5797   -2.8384   31.1039 H   0  0  0  0  0  0  0  0  0  0  0  0
   -6.6622   -3.2344   33.1720 H   0  0  0  0  0  0  0  0  0  0  0  0
   -6.8610   -2.2071   31.7439 H   0  0  0  0  0  0  0  0  0  0  0  0
   -6.3794   -5.2172   31.6281 H   0  0  0  0  0  0  0  0  0  0  0  0
   -8.9879   -3.8149   31.9113 H   0  0  0  0  0  0  0  0  0  0  0  0
   -8.3228   -5.1659   32.8044 H   0  0  0  0  0  0  0  0  0  0  0  0
   -9.7955   -6.3395   31.4867 H   0  0  0  0  0  0  0  0  0  0  0  0
   -9.8334   -5.0984   30.2622 H   0  0  0  0  0  0  0  0  0  0  0  0
   -9.0205   -7.0131   29.1866 H   0  0  0  0  0  0  0  0  0  0  0  0
   -7.2137   -8.5172   28.7127 H   0  0  0  0  0  0  0  0  0  0  0  0
   -7.6966  -10.4067   30.4258 H   0  0  0  0  0  0  0  0  0  0  0  0
   -6.3845  -10.4024   30.9805 H   0  0  0  0  0  0  0  0  0  0  0  0
   -5.2056  -11.7975   27.9327 H   0  0  0  0  0  0  0  0  0  0  0  0
   -4.9981  -12.2419   29.4933 H   0  0  0  0  0  0  0  0  0  0  0  0
   -6.9934  -12.4229   26.0255 H   0  0  0  0  0  0  0  0  0  0  0  0
   -9.4467  -13.3422   26.9723 H   0  0  0  0  0  0  0  0  0  0  0  0
   -9.2576  -16.1904   26.7379 H   0  0  0  0  0  0  0  0  0  0  0  0
   -8.0698  -17.5626   28.2786 H   0  0  0  0  0  0  0  0  0  0  0  0
   -5.6674  -16.7070   29.8043 H   0  0  0  0  0  0  0  0  0  0  0  0
   -5.7039  -14.2476   30.4716 H   0  0  0  0  0  0  0  0  0  0  0  0
   -6.5560   -6.1957   28.7808 H   0  0  0  0  0  0  0  0  0  0  0  0
   -7.9369   -5.3476   28.1927 H   0  0  0  0  0  0  0  0  0  0  0  0
   -6.0337   -4.0127   29.4019 H   0  0  0  0  0  0  0  0  0  0  0  0
   -7.7131   -3.5359   29.5035 H   0  0  0  0  0  0  0  0  0  0  0  0
  1  2  1  0
  2  3  1  0
  3  4  2  0
  3  5  2  0
  3  6  1  0
  6  7  1  0
  7  8  1  0
  8  9  1  0
  9 10  1  0
 10 11  1  0
 11 12  1  0
 12 13  2  0
 12 14  1  0
 14 15  1  0
 15 16  1  0
 16 17  1  0
 17 18  2  0
 18 19  1  0
 19 20  1  0
 20 21  2  0
 21 22  1  0
 22 23  2  0
 23 24  1  0
 24 25  2  0
 11 26  1  0
 26 27  1  0
 27  8  1  0
 25 17  1  0
 25 20  1  0
  1 28  1  0
  1 29  1  0
  1 30  1  0
  2 31  1  0
  2 32  1  0
  6 33  1  0
  7 34  1  0
  7 35  1  0
  8 36  1  0
  9 37  1  0
  9 38  1  0
 10 39  1  0
 10 40  1  0
 11 41  1  0
 14 42  1  0
 15 43  1  0
 15 44  1  0
 16 45  1  0
 16 46  1  0
 18 47  1  0
 19 48  1  0
 21 49  1  0
 22 50  1  0
 23 51  1  0
 24 52  1  0
 26 53  1  0
 26 54  1  0
 27 55  1  0
 27 56  1  0
M  END
>  <Energy>  (304) 
270.19329111462019

>  <compound_id>  (304) 
5034

>  <target_id>  (304) 
1

>  <reference_id>  (304) 
13

>  <inspiration_ids>  (304) 
[39, 13]

>  <energy_score>  (304) 
265.271449386716

>  <distance_score>  (304) 
9.421900737303833

>  <path>  (304) 
/opt/xchem-fragalysis-2/maxwin/BulkDock/SCRATCH/511018/C5034-P13/C5034-P13.minimised.mol

>  <scratch_subdir>  (304) 
/opt/xchem-fragalysis-2/maxwin/BulkDock/SCRATCH/511018/C5034-P13

>  <fragmenstein_runtime>  (304) 
44.94176697731018

>  <fragmenstein_outcome>  (304) 
too moved

>  <fragmenstein_mode>  (304) 
expansion

>  <fragmenstein_error>  (304) 


$$$$
C5043-P54
     RDKit          3D

 42 44  0  0  0  0  0  0  0  0999 V2000
  -10.4853  -27.0356   12.5040 C   0  0  0  0  0  0  0  0  0  0  0  0
   -9.7330  -27.6361   13.5249 C   0  0  0  0  0  0  0  0  0  0  0  0
  -10.4168  -27.7615   14.6626 N   0  0  0  0  0  0  0  0  0  0  0  0
  -11.6258  -27.2060   14.3918 N   0  0  0  0  0  0  0  0  0  0  0  0
  -12.6272  -27.0486   15.3917 C   0  0  0  0  0  0  0  0  0  0  0  0
  -12.3143  -27.3797   16.7045 C   0  0  0  0  0  0  0  0  0  0  0  0
  -13.2201  -26.9944   17.6706 C   0  0  0  0  0  0  0  0  0  0  0  0
  -12.8822  -27.1886   19.0656 N   0  0  0  0  0  0  0  0  0  0  0  0
  -13.6599  -26.2150   19.9018 C   0  0  0  0  0  0  0  0  0  0  0  0
  -13.8133  -25.6700   21.7397 C   0  0  0  0  0  0  0  0  0  0  0  0
  -14.2508  -25.8708   23.6456 C   0  0  0  0  0  0  0  0  0  0  0  0
  -13.8700  -24.7468   24.5583 O   0  0  0  0  0  0  0  0  0  0  0  0
  -13.4549  -25.1170   25.8880 C   0  0  0  0  0  0  0  0  0  0  0  0
  -14.6047  -25.2748   26.8694 C   0  0  0  0  0  0  0  0  0  0  0  0
  -13.9465  -25.1571   28.2426 C   0  0  0  0  0  0  0  0  0  0  0  0
  -12.6871  -24.3162   28.0404 C   0  0  0  0  0  0  0  0  0  0  0  0
  -12.6445  -23.9958   26.5496 C   0  0  0  0  0  0  0  0  0  0  0  0
  -14.4028  -26.4391   17.3245 N   0  0  0  0  0  0  0  0  0  0  0  0
  -14.6426  -26.2218   16.0237 C   0  0  0  0  0  0  0  0  0  0  0  0
  -13.7998  -26.4778   15.0247 N   0  0  0  0  0  0  0  0  0  0  0  0
  -11.7060  -26.7844   13.0805 C   0  0  0  0  0  0  0  0  0  0  0  0
  -10.1815  -26.8127   11.4919 H   0  0  0  0  0  0  0  0  0  0  0  0
   -8.7106  -27.9910   13.4883 H   0  0  0  0  0  0  0  0  0  0  0  0
  -11.3647  -27.8251   16.9758 H   0  0  0  0  0  0  0  0  0  0  0  0
  -11.8859  -26.9784   19.1826 H   0  0  0  0  0  0  0  0  0  0  0  0
  -14.5995  -26.7330   19.6391 H   0  0  0  0  0  0  0  0  0  0  0  0
  -13.5230  -25.2386   19.4156 H   0  0  0  0  0  0  0  0  0  0  0  0
  -14.7786  -26.0376   21.7828 H   0  0  0  0  0  0  0  0  0  0  0  0
  -13.6559  -24.6201   21.5821 H   0  0  0  0  0  0  0  0  0  0  0  0
  -15.3460  -26.0129   23.7684 H   0  0  0  0  0  0  0  0  0  0  0  0
  -13.9209  -26.7204   24.2394 H   0  0  0  0  0  0  0  0  0  0  0  0
  -12.8331  -26.0213   25.8610 H   0  0  0  0  0  0  0  0  0  0  0  0
  -15.1298  -26.2263   26.7403 H   0  0  0  0  0  0  0  0  0  0  0  0
  -15.3448  -24.4782   26.7235 H   0  0  0  0  0  0  0  0  0  0  0  0
  -13.6731  -26.1494   28.6195 H   0  0  0  0  0  0  0  0  0  0  0  0
  -14.6335  -24.7113   28.9641 H   0  0  0  0  0  0  0  0  0  0  0  0
  -12.6925  -23.4086   28.6509 H   0  0  0  0  0  0  0  0  0  0  0  0
  -11.8042  -24.8978   28.3299 H   0  0  0  0  0  0  0  0  0  0  0  0
  -13.1008  -23.0231   26.3366 H   0  0  0  0  0  0  0  0  0  0  0  0
  -11.6159  -23.9480   26.1790 H   0  0  0  0  0  0  0  0  0  0  0  0
  -15.6005  -25.7836   15.7664 H   0  0  0  0  0  0  0  0  0  0  0  0
  -12.6069  -26.3235   12.7015 H   0  0  0  0  0  0  0  0  0  0  0  0
  1  2  1  0
  2  3  2  0
  3  4  1  0
  4  5  1  0
  5  6  2  0
  6  7  1  0
  7  8  1  0
  8  9  1  0
  9 10  1  0
 10 11  1  0
 11 12  1  0
 12 13  1  0
 13 14  1  0
 14 15  1  0
 15 16  1  0
 16 17  1  0
  7 18  2  0
 18 19  1  0
 19 20  2  0
  4 21  1  0
 21  1  2  0
 20  5  1  0
 17 13  1  0
  1 22  1  0
  2 23  1  0
  6 24  1  0
  8 25  1  0
  9 26  1  0
  9 27  1  0
 10 28  1  0
 10 29  1  0
 11 30  1  0
 11 31  1  0
 13 32  1  0
 14 33  1  0
 14 34  1  0
 15 35  1  0
 15 36  1  0
 16 37  1  0
 16 38  1  0
 17 39  1  0
 17 40  1  0
 19 41  1  0
 21 42  1  0
M  END
>  <Energy>  (305) 
180.02507697846801

>  <compound_id>  (305) 
5043

>  <target_id>  (305) 
1

>  <reference_id>  (305) 
54

>  <inspiration_ids>  (305) 
[54, 112]

>  <energy_score>  (305) 
124.4227710942904

>  <distance_score>  (305) 
5.4016327674946005

>  <path>  (305) 
/opt/xchem-fragalysis-2/maxwin/BulkDock/SCRATCH/511018/C5043-P54/C5043-P54.minimised.mol

>  <scratch_subdir>  (305) 
/opt/xchem-fragalysis-2/maxwin/BulkDock/SCRATCH/511018/C5043-P54

>  <fragmenstein_runtime>  (305) 
23.41972041130066

>  <fragmenstein_outcome>  (305) 
too moved

>  <fragmenstein_mode>  (305) 
expansion

>  <fragmenstein_error>  (305) 


$$$$
C5043-P112
     RDKit          3D

 42 44  0  0  0  0  0  0  0  0999 V2000
  -11.2704  -27.8129   14.3121 C   0  0  0  0  0  0  0  0  0  0  0  0
  -10.4453  -27.9297   15.4387 C   0  0  0  0  0  0  0  0  0  0  0  0
  -11.0795  -27.6237   16.5725 N   0  0  0  0  0  0  0  0  0  0  0  0
  -12.3103  -27.2172   16.1797 N   0  0  0  0  0  0  0  0  0  0  0  0
  -13.2159  -26.5439   17.0614 C   0  0  0  0  0  0  0  0  0  0  0  0
  -12.8426  -26.3038   18.4039 C   0  0  0  0  0  0  0  0  0  0  0  0
  -13.3574  -25.1857   19.0881 C   0  0  0  0  0  0  0  0  0  0  0  0
  -12.5678  -24.5399   20.2268 N   0  0  0  0  0  0  0  0  0  0  0  0
  -12.3775  -22.9735   21.0006 C   0  0  0  0  0  0  0  0  0  0  0  0
  -11.9544  -22.3152   22.5097 C   0  0  0  0  0  0  0  0  0  0  0  0
  -12.9574  -22.2004   23.7970 C   0  0  0  0  0  0  0  0  0  0  0  0
  -13.1403  -23.2138   24.8349 O   0  0  0  0  0  0  0  0  0  0  0  0
  -12.0668  -23.3594   25.7667 C   0  0  0  0  0  0  0  0  0  0  0  0
  -11.9209  -24.6981   26.4728 C   0  0  0  0  0  0  0  0  0  0  0  0
  -10.7925  -24.3551   27.4329 C   0  0  0  0  0  0  0  0  0  0  0  0
  -11.1625  -22.9935   27.9814 C   0  0  0  0  0  0  0  0  0  0  0  0
  -12.0101  -22.3837   26.9027 C   0  0  0  0  0  0  0  0  0  0  0  0
  -14.2630  -24.5279   18.3451 N   0  0  0  0  0  0  0  0  0  0  0  0
  -14.7527  -24.9595   17.1629 C   0  0  0  0  0  0  0  0  0  0  0  0
  -14.2632  -25.9572   16.4660 N   0  0  0  0  0  0  0  0  0  0  0  0
  -12.4707  -27.3737   14.8146 C   0  0  0  0  0  0  0  0  0  0  0  0
  -11.0232  -28.0040   13.2775 H   0  0  0  0  0  0  0  0  0  0  0  0
   -9.4049  -28.2316   15.4833 H   0  0  0  0  0  0  0  0  0  0  0  0
  -11.9836  -26.8248   18.7735 H   0  0  0  0  0  0  0  0  0  0  0  0
  -11.9665  -25.2507   20.6278 H   0  0  0  0  0  0  0  0  0  0  0  0
  -13.3567  -22.8947   21.3268 H   0  0  0  0  0  0  0  0  0  0  0  0
  -12.1907  -22.2239   20.2496 H   0  0  0  0  0  0  0  0  0  0  0  0
  -11.8459  -21.2576   22.2242 H   0  0  0  0  0  0  0  0  0  0  0  0
  -10.9597  -22.4855   22.8903 H   0  0  0  0  0  0  0  0  0  0  0  0
  -13.9674  -22.0428   23.4339 H   0  0  0  0  0  0  0  0  0  0  0  0
  -12.6557  -21.2839   24.3148 H   0  0  0  0  0  0  0  0  0  0  0  0
  -11.1686  -23.3535   25.1715 H   0  0  0  0  0  0  0  0  0  0  0  0
  -11.6262  -25.5293   25.8286 H   0  0  0  0  0  0  0  0  0  0  0  0
  -12.8629  -24.9868   26.9202 H   0  0  0  0  0  0  0  0  0  0  0  0
  -10.6077  -25.1219   28.1699 H   0  0  0  0  0  0  0  0  0  0  0  0
   -9.8632  -24.2703   26.8644 H   0  0  0  0  0  0  0  0  0  0  0  0
  -11.7682  -23.0036   28.8730 H   0  0  0  0  0  0  0  0  0  0  0  0
  -10.3050  -22.3981   28.2566 H   0  0  0  0  0  0  0  0  0  0  0  0
  -12.9835  -22.2565   27.3066 H   0  0  0  0  0  0  0  0  0  0  0  0
  -11.6952  -21.4044   26.5918 H   0  0  0  0  0  0  0  0  0  0  0  0
  -15.5859  -24.4077   16.7424 H   0  0  0  0  0  0  0  0  0  0  0  0
  -13.4024  -27.1113   14.3330 H   0  0  0  0  0  0  0  0  0  0  0  0
  1  2  1  0
  2  3  2  0
  3  4  1  0
  4  5  1  0
  5  6  2  0
  6  7  1  0
  7  8  1  0
  8  9  1  0
  9 10  1  0
 10 11  1  0
 11 12  1  0
 12 13  1  0
 13 14  1  0
 14 15  1  0
 15 16  1  0
 16 17  1  0
  7 18  2  0
 18 19  1  0
 19 20  2  0
  4 21  1  0
 21  1  2  0
 20  5  1  0
 17 13  1  0
  1 22  1  0
  2 23  1  0
  6 24  1  0
  8 25  1  0
  9 26  1  0
  9 27  1  0
 10 28  1  0
 10 29  1  0
 11 30  1  0
 11 31  1  0
 13 32  1  0
 14 33  1  0
 14 34  1  0
 15 35  1  0
 15 36  1  0
 16 37  1  0
 16 38  1  0
 17 39  1  0
 17 40  1  0
 19 41  1  0
 21 42  1  0
M  END
>  <Energy>  (306) 
136.44688790212055

>  <compound_id>  (306) 
5043

>  <target_id>  (306) 
1

>  <reference_id>  (306) 
112

>  <inspiration_ids>  (306) 
[54, 112]

>  <energy_score>  (306) 
80.84458201794536

>  <distance_score>  (306) 
5.427591674140095

>  <path>  (306) 
/opt/xchem-fragalysis-2/maxwin/BulkDock/SCRATCH/511018/C5043-P112/C5043-P112.minimised.mol

>  <scratch_subdir>  (306) 
/opt/xchem-fragalysis-2/maxwin/BulkDock/SCRATCH/511018/C5043-P112

>  <fragmenstein_runtime>  (306) 
23.930218935012817

>  <fragmenstein_outcome>  (306) 
too moved

>  <fragmenstein_mode>  (306) 
expansion

>  <fragmenstein_error>  (306) 


$$$$
C5046-P54
     RDKit          3D

 50 51  0  0  0  0  0  0  0  0999 V2000
   -8.7822  -21.3419   21.8510 C   0  0  0  0  0  0  0  0  0  0  0  0
  -10.2796  -21.3735   22.0222 C   0  0  0  0  0  0  0  0  0  0  0  0
  -10.7479  -21.1034   23.2379 N   0  0  0  0  0  0  0  0  0  0  0  0
  -11.9410  -21.5919   23.5206 C   0  0  0  0  0  0  0  0  0  0  0  0
  -12.6189  -22.3832   22.6293 C   0  0  0  0  0  0  0  0  0  0  0  0
  -12.1166  -22.6151   21.3231 C   0  0  0  0  0  0  0  0  0  0  0  0
  -12.5205  -23.6022   20.3589 N   0  0  0  0  0  0  0  0  0  0  0  0
  -13.3169  -25.0421   19.8051 C   0  0  0  0  0  0  0  0  0  0  0  0
  -13.3453  -26.4400   18.6462 C   0  0  0  0  0  0  0  0  0  0  0  0
  -12.7176  -26.4153   17.3274 N   0  0  0  0  0  0  0  0  0  0  0  0
  -11.6953  -27.2496   16.7521 C   0  0  0  0  0  0  0  0  0  0  0  0
  -11.0392  -28.1240   17.2341 O   0  0  0  0  0  0  0  0  0  0  0  0
  -11.5679  -26.9681   15.2594 C   0  0  0  0  0  0  0  0  0  0  0  0
  -10.2656  -26.3542   14.8226 C   0  0  0  0  0  0  0  0  0  0  0  0
  -10.1985  -26.3335   13.3715 N   0  0  0  0  0  0  0  0  0  0  0  0
   -9.3691  -27.0753   12.5824 C   0  0  0  0  0  0  0  0  0  0  0  0
   -9.7243  -26.7924   11.2868 C   0  0  0  0  0  0  0  0  0  0  0  0
  -10.7801  -25.8721   11.4010 C   0  0  0  0  0  0  0  0  0  0  0  0
  -11.0937  -25.6081   12.6702 N   0  0  0  0  0  0  0  0  0  0  0  0
  -14.8657  -27.0246   18.0347 C   0  0  0  0  0  0  0  0  0  0  0  0
  -15.7740  -27.8889   18.9243 C   0  0  0  0  0  0  0  0  0  0  0  0
  -14.6409  -28.0751   16.8558 C   0  0  0  0  0  0  0  0  0  0  0  0
  -15.6830  -25.8952   17.3590 C   0  0  0  0  0  0  0  0  0  0  0  0
  -11.0052  -21.9379   21.0224 N   0  0  0  0  0  0  0  0  0  0  0  0
   -8.5791  -21.3144   20.7892 H   0  0  0  0  0  0  0  0  0  0  0  0
   -8.2575  -20.4570   22.1777 H   0  0  0  0  0  0  0  0  0  0  0  0
   -8.2849  -22.1866   22.3291 H   0  0  0  0  0  0  0  0  0  0  0  0
  -12.3111  -21.4078   24.5200 H   0  0  0  0  0  0  0  0  0  0  0  0
  -13.4867  -22.9026   23.0129 H   0  0  0  0  0  0  0  0  0  0  0  0
  -12.6227  -22.9162   19.5912 H   0  0  0  0  0  0  0  0  0  0  0  0
  -13.9537  -24.5155   19.0999 H   0  0  0  0  0  0  0  0  0  0  0  0
  -13.6792  -25.4348   20.7485 H   0  0  0  0  0  0  0  0  0  0  0  0
  -12.9111  -27.2968   19.1577 H   0  0  0  0  0  0  0  0  0  0  0  0
  -13.1164  -25.8407   16.6064 H   0  0  0  0  0  0  0  0  0  0  0  0
  -11.6943  -27.9465   14.7717 H   0  0  0  0  0  0  0  0  0  0  0  0
  -12.4159  -26.3823   14.8868 H   0  0  0  0  0  0  0  0  0  0  0  0
  -10.1552  -25.3198   15.1526 H   0  0  0  0  0  0  0  0  0  0  0  0
   -9.4152  -26.9320   15.1976 H   0  0  0  0  0  0  0  0  0  0  0  0
   -8.6178  -27.7308   13.0009 H   0  0  0  0  0  0  0  0  0  0  0  0
   -9.2851  -27.1982   10.3874 H   0  0  0  0  0  0  0  0  0  0  0  0
  -11.3395  -25.3921   10.6103 H   0  0  0  0  0  0  0  0  0  0  0  0
  -15.3019  -28.8507   19.1406 H   0  0  0  0  0  0  0  0  0  0  0  0
  -16.7111  -28.1318   18.4036 H   0  0  0  0  0  0  0  0  0  0  0  0
  -16.1003  -27.4550   19.8495 H   0  0  0  0  0  0  0  0  0  0  0  0
  -15.5788  -28.5726   16.5741 H   0  0  0  0  0  0  0  0  0  0  0  0
  -13.9402  -28.8611   17.1597 H   0  0  0  0  0  0  0  0  0  0  0  0
  -14.2928  -27.6121   15.9276 H   0  0  0  0  0  0  0  0  0  0  0  0
  -16.6077  -26.2883   16.9190 H   0  0  0  0  0  0  0  0  0  0  0  0
  -15.1286  -25.4209   16.5436 H   0  0  0  0  0  0  0  0  0  0  0  0
  -15.9780  -25.1056   18.0398 H   0  0  0  0  0  0  0  0  0  0  0  0
  1  2  1  0
  2  3  2  0
  3  4  1  0
  4  5  2  0
  5  6  1  0
  6  7  1  0
  7  8  1  0
  8  9  1  0
  9 10  1  0
 10 11  1  0
 11 12  2  0
 11 13  1  0
 13 14  1  0
 14 15  1  0
 15 16  1  0
 16 17  2  0
 17 18  1  0
 18 19  2  0
  9 20  1  0
 20 21  1  0
 20 22  1  0
 20 23  1  0
  6 24  2  0
 24  2  1  0
 19 15  1  0
  1 25  1  0
  1 26  1  0
  1 27  1  0
  4 28  1  0
  5 29  1  0
  7 30  1  0
  8 31  1  0
  8 32  1  0
  9 33  1  0
 10 34  1  0
 13 35  1  0
 13 36  1  0
 14 37  1  0
 14 38  1  0
 16 39  1  0
 17 40  1  0
 18 41  1  0
 21 42  1  0
 21 43  1  0
 21 44  1  0
 22 45  1  0
 22 46  1  0
 22 47  1  0
 23 48  1  0
 23 49  1  0
 23 50  1  0
M  END
>  <Energy>  (307) 
144.6455869645593

>  <compound_id>  (307) 
5046

>  <target_id>  (307) 
1

>  <reference_id>  (307) 
54

>  <inspiration_ids>  (307) 
[54, 112]

>  <energy_score>  (307) 
118.6722016272573

>  <distance_score>  (307) 
6.474657225617194

>  <path>  (307) 
/opt/xchem-fragalysis-2/maxwin/BulkDock/SCRATCH/511018/C5046-P54/C5046-P54.minimised.mol

>  <scratch_subdir>  (307) 
/opt/xchem-fragalysis-2/maxwin/BulkDock/SCRATCH/511018/C5046-P54

>  <fragmenstein_runtime>  (307) 
32.26051354408264

>  <fragmenstein_outcome>  (307) 
too moved

>  <fragmenstein_mode>  (307) 
expansion

>  <fragmenstein_error>  (307) 


$$$$
C5046-P112
     RDKit          3D

 50 51  0  0  0  0  0  0  0  0999 V2000
   -8.7657  -21.5840   22.2318 C   0  0  0  0  0  0  0  0  0  0  0  0
  -10.2922  -21.5166   22.3330 C   0  0  0  0  0  0  0  0  0  0  0  0
  -10.8547  -21.1472   23.4819 N   0  0  0  0  0  0  0  0  0  0  0  0
  -12.0798  -21.5781   23.7383 C   0  0  0  0  0  0  0  0  0  0  0  0
  -12.7440  -22.3579   22.8532 C   0  0  0  0  0  0  0  0  0  0  0  0
  -12.1371  -22.5867   21.6142 C   0  0  0  0  0  0  0  0  0  0  0  0
  -12.6995  -23.3637   20.6146 N   0  0  0  0  0  0  0  0  0  0  0  0
  -12.9020  -24.8978   19.8395 C   0  0  0  0  0  0  0  0  0  0  0  0
  -13.9581  -26.0427   19.1272 C   0  0  0  0  0  0  0  0  0  0  0  0
  -13.4564  -27.4372   19.0957 N   0  0  0  0  0  0  0  0  0  0  0  0
  -14.1479  -28.6894   19.2181 C   0  0  0  0  0  0  0  0  0  0  0  0
  -15.2967  -28.9283   19.4588 O   0  0  0  0  0  0  0  0  0  0  0  0
  -13.2486  -29.8654   18.8793 C   0  0  0  0  0  0  0  0  0  0  0  0
  -12.6966  -29.8658   17.4433 C   0  0  0  0  0  0  0  0  0  0  0  0
  -13.5319  -29.6996   16.2784 N   0  0  0  0  0  0  0  0  0  0  0  0
  -14.8147  -30.0958   16.0717 C   0  0  0  0  0  0  0  0  0  0  0  0
  -15.1165  -29.7463   14.7745 C   0  0  0  0  0  0  0  0  0  0  0  0
  -13.9309  -29.1991   14.2607 C   0  0  0  0  0  0  0  0  0  0  0  0
  -12.9502  -29.2015   15.1632 N   0  0  0  0  0  0  0  0  0  0  0  0
  -14.4206  -25.8898   17.5432 C   0  0  0  0  0  0  0  0  0  0  0  0
  -15.6495  -26.7914   17.2468 C   0  0  0  0  0  0  0  0  0  0  0  0
  -13.2729  -26.2477   16.5677 C   0  0  0  0  0  0  0  0  0  0  0  0
  -14.8876  -24.5368   17.0603 C   0  0  0  0  0  0  0  0  0  0  0  0
  -11.0002  -21.9922   21.3071 N   0  0  0  0  0  0  0  0  0  0  0  0
   -8.1944  -20.6967   22.5148 H   0  0  0  0  0  0  0  0  0  0  0  0
   -8.3391  -22.4233   22.7816 H   0  0  0  0  0  0  0  0  0  0  0  0
   -8.5034  -21.6399   21.1940 H   0  0  0  0  0  0  0  0  0  0  0  0
  -12.4856  -21.3194   24.7048 H   0  0  0  0  0  0  0  0  0  0  0  0
  -13.6978  -22.7732   23.1362 H   0  0  0  0  0  0  0  0  0  0  0  0
  -12.5132  -22.6524   19.8864 H   0  0  0  0  0  0  0  0  0  0  0  0
  -13.2665  -24.3475   18.9915 H   0  0  0  0  0  0  0  0  0  0  0  0
  -11.9064  -25.2361   19.7020 H   0  0  0  0  0  0  0  0  0  0  0  0
  -14.8506  -26.1735   19.7183 H   0  0  0  0  0  0  0  0  0  0  0  0
  -12.5043  -27.6134   18.8032 H   0  0  0  0  0  0  0  0  0  0  0  0
  -13.8276  -30.7843   19.0369 H   0  0  0  0  0  0  0  0  0  0  0  0
  -12.4250  -29.8903   19.6021 H   0  0  0  0  0  0  0  0  0  0  0  0
  -12.2105  -30.8350   17.2799 H   0  0  0  0  0  0  0  0  0  0  0  0
  -11.9331  -29.0868   17.3673 H   0  0  0  0  0  0  0  0  0  0  0  0
  -15.4119  -30.5555   16.8475 H   0  0  0  0  0  0  0  0  0  0  0  0
  -16.0616  -29.8822   14.2684 H   0  0  0  0  0  0  0  0  0  0  0  0
  -13.7372  -28.8117   13.2687 H   0  0  0  0  0  0  0  0  0  0  0  0
  -16.4524  -26.6101   17.9701 H   0  0  0  0  0  0  0  0  0  0  0  0
  -15.4092  -27.8468   17.2619 H   0  0  0  0  0  0  0  0  0  0  0  0
  -16.0621  -26.6043   16.2474 H   0  0  0  0  0  0  0  0  0  0  0  0
  -12.8547  -27.2270   16.7499 H   0  0  0  0  0  0  0  0  0  0  0  0
  -12.4376  -25.5543   16.6437 H   0  0  0  0  0  0  0  0  0  0  0  0
  -13.6141  -26.2314   15.5258 H   0  0  0  0  0  0  0  0  0  0  0  0
  -15.2118  -24.5588   16.0105 H   0  0  0  0  0  0  0  0  0  0  0  0
  -14.0453  -23.8612   17.0771 H   0  0  0  0  0  0  0  0  0  0  0  0
  -15.7465  -24.1806   17.6232 H   0  0  0  0  0  0  0  0  0  0  0  0
  1  2  1  0
  2  3  2  0
  3  4  1  0
  4  5  2  0
  5  6  1  0
  6  7  1  0
  7  8  1  0
  8  9  1  0
  9 10  1  0
 10 11  1  0
 11 12  2  0
 11 13  1  0
 13 14  1  0
 14 15  1  0
 15 16  1  0
 16 17  2  0
 17 18  1  0
 18 19  2  0
  9 20  1  0
 20 21  1  0
 20 22  1  0
 20 23  1  0
  6 24  2  0
 24  2  1  0
 19 15  1  0
  1 25  1  0
  1 26  1  0
  1 27  1  0
  4 28  1  0
  5 29  1  0
  7 30  1  0
  8 31  1  0
  8 32  1  0
  9 33  1  0
 10 34  1  0
 13 35  1  0
 13 36  1  0
 14 37  1  0
 14 38  1  0
 16 39  1  0
 17 40  1  0
 18 41  1  0
 21 42  1  0
 21 43  1  0
 21 44  1  0
 22 45  1  0
 22 46  1  0
 22 47  1  0
 23 48  1  0
 23 49  1  0
 23 50  1  0
M  END
>  <Energy>  (308) 
125.5698010142774

>  <compound_id>  (308) 
5046

>  <target_id>  (308) 
1

>  <reference_id>  (308) 
112

>  <inspiration_ids>  (308) 
[54, 112]

>  <energy_score>  (308) 
99.59641567697355

>  <distance_score>  (308) 
7.224724381200736

>  <path>  (308) 
/opt/xchem-fragalysis-2/maxwin/BulkDock/SCRATCH/511018/C5046-P112/C5046-P112.minimised.mol

>  <scratch_subdir>  (308) 
/opt/xchem-fragalysis-2/maxwin/BulkDock/SCRATCH/511018/C5046-P112

>  <fragmenstein_runtime>  (308) 
36.02968430519104

>  <fragmenstein_outcome>  (308) 
too moved

>  <fragmenstein_mode>  (308) 
expansion

>  <fragmenstein_error>  (308) 


$$$$
C5047-P54
     RDKit          3D

 50 51  0  0  0  0  0  0  0  0999 V2000
  -13.4290  -27.3692   27.0695 C   0  0  0  0  0  0  0  0  0  0  0  0
  -13.6745  -26.2528   26.1011 C   0  0  0  0  0  0  0  0  0  0  0  0
  -13.5742  -25.0189   26.6137 N   0  0  0  0  0  0  0  0  0  0  0  0
  -13.6760  -24.0262   25.7370 C   0  0  0  0  0  0  0  0  0  0  0  0
  -13.8613  -24.2395   24.3841 C   0  0  0  0  0  0  0  0  0  0  0  0
  -14.0195  -25.5821   23.8549 C   0  0  0  0  0  0  0  0  0  0  0  0
  -14.0859  -25.9168   22.1587 N   0  0  0  0  0  0  0  0  0  0  0  0
  -13.4165  -25.8652   20.3811 C   0  0  0  0  0  0  0  0  0  0  0  0
  -13.3936  -27.0859   18.9620 C   0  0  0  0  0  0  0  0  0  0  0  0
  -12.2439  -27.0664   18.0135 N   0  0  0  0  0  0  0  0  0  0  0  0
  -12.1920  -26.8107   16.5765 C   0  0  0  0  0  0  0  0  0  0  0  0
  -13.0540  -26.4722   15.8094 O   0  0  0  0  0  0  0  0  0  0  0  0
  -10.7950  -27.0899   15.9727 C   0  0  0  0  0  0  0  0  0  0  0  0
  -10.5463  -26.2634   14.7002 C   0  0  0  0  0  0  0  0  0  0  0  0
  -10.6176  -28.5004   15.6365 N   0  0  0  0  0  0  0  0  0  0  0  0
   -9.4219  -29.1671   15.6680 C   0  0  0  0  0  0  0  0  0  0  0  0
   -9.6643  -30.4055   15.1268 C   0  0  0  0  0  0  0  0  0  0  0  0
  -11.0313  -30.3913   14.8018 C   0  0  0  0  0  0  0  0  0  0  0  0
  -11.6140  -29.2334   15.1109 N   0  0  0  0  0  0  0  0  0  0  0  0
  -14.8025  -27.4496   18.1407 C   0  0  0  0  0  0  0  0  0  0  0  0
  -14.5694  -28.6295   17.1316 C   0  0  0  0  0  0  0  0  0  0  0  0
  -15.3427  -26.2023   17.4096 C   0  0  0  0  0  0  0  0  0  0  0  0
  -15.9717  -28.0597   18.9617 C   0  0  0  0  0  0  0  0  0  0  0  0
  -13.8636  -26.5652   24.7794 N   0  0  0  0  0  0  0  0  0  0  0  0
  -14.0252  -28.2451   26.7977 H   0  0  0  0  0  0  0  0  0  0  0  0
  -12.3701  -27.6424   27.0549 H   0  0  0  0  0  0  0  0  0  0  0  0
  -13.7039  -27.0722   28.0863 H   0  0  0  0  0  0  0  0  0  0  0  0
  -13.5396  -23.0231   26.1276 H   0  0  0  0  0  0  0  0  0  0  0  0
  -13.7953  -23.3555   23.7540 H   0  0  0  0  0  0  0  0  0  0  0  0
  -14.2161  -24.9113   22.1028 H   0  0  0  0  0  0  0  0  0  0  0  0
  -13.3188  -24.8541   20.0234 H   0  0  0  0  0  0  0  0  0  0  0  0
  -14.2971  -26.3570   20.1646 H   0  0  0  0  0  0  0  0  0  0  0  0
  -13.1778  -28.0433   19.4157 H   0  0  0  0  0  0  0  0  0  0  0  0
  -11.3442  -27.4155   18.3206 H   0  0  0  0  0  0  0  0  0  0  0  0
  -10.0234  -26.8751   16.7108 H   0  0  0  0  0  0  0  0  0  0  0  0
  -11.3562  -26.3763   13.9708 H   0  0  0  0  0  0  0  0  0  0  0  0
   -9.6221  -26.5761   14.2017 H   0  0  0  0  0  0  0  0  0  0  0  0
  -10.4403  -25.2009   14.9263 H   0  0  0  0  0  0  0  0  0  0  0  0
   -8.5175  -28.7041   16.0407 H   0  0  0  0  0  0  0  0  0  0  0  0
   -8.9526  -31.2046   14.9783 H   0  0  0  0  0  0  0  0  0  0  0  0
  -11.6263  -31.1740   14.3491 H   0  0  0  0  0  0  0  0  0  0  0  0
  -15.5222  -29.0705   16.8083 H   0  0  0  0  0  0  0  0  0  0  0  0
  -13.9872  -29.4309   17.6015 H   0  0  0  0  0  0  0  0  0  0  0  0
  -14.0826  -28.3622   16.2004 H   0  0  0  0  0  0  0  0  0  0  0  0
  -16.2476  -25.8061   17.8788 H   0  0  0  0  0  0  0  0  0  0  0  0
  -14.6150  -25.3856   17.4056 H   0  0  0  0  0  0  0  0  0  0  0  0
  -15.6120  -26.4255   16.3715 H   0  0  0  0  0  0  0  0  0  0  0  0
  -16.8970  -28.0619   18.3692 H   0  0  0  0  0  0  0  0  0  0  0  0
  -16.2099  -27.5469   19.8779 H   0  0  0  0  0  0  0  0  0  0  0  0
  -15.7862  -29.1077   19.2204 H   0  0  0  0  0  0  0  0  0  0  0  0
  1  2  1  0
  2  3  2  0
  3  4  1  0
  4  5  2  0
  5  6  1  0
  6  7  1  0
  7  8  1  0
  8  9  1  0
  9 10  1  0
 10 11  1  0
 11 12  2  0
 11 13  1  0
 13 14  1  0
 13 15  1  0
 15 16  1  0
 16 17  2  0
 17 18  1  0
 18 19  2  0
  9 20  1  0
 20 21  1  0
 20 22  1  0
 20 23  1  0
  6 24  2  0
 24  2  1  0
 19 15  1  0
  1 25  1  0
  1 26  1  0
  1 27  1  0
  4 28  1  0
  5 29  1  0
  7 30  1  0
  8 31  1  0
  8 32  1  0
  9 33  1  0
 10 34  1  0
 13 35  1  0
 14 36  1  0
 14 37  1  0
 14 38  1  0
 16 39  1  0
 17 40  1  0
 18 41  1  0
 21 42  1  0
 21 43  1  0
 21 44  1  0
 22 45  1  0
 22 46  1  0
 22 47  1  0
 23 48  1  0
 23 49  1  0
 23 50  1  0
M  END
>  <Energy>  (309) 
279.89449379288277

>  <compound_id>  (309) 
5047

>  <target_id>  (309) 
1

>  <reference_id>  (309) 
54

>  <inspiration_ids>  (309) 
[54, 112]

>  <energy_score>  (309) 
225.90472006443161

>  <distance_score>  (309) 
5.646973306595655

>  <path>  (309) 
/opt/xchem-fragalysis-2/maxwin/BulkDock/SCRATCH/511018/C5047-P54/C5047-P54.minimised.mol

>  <scratch_subdir>  (309) 
/opt/xchem-fragalysis-2/maxwin/BulkDock/SCRATCH/511018/C5047-P54

>  <fragmenstein_runtime>  (309) 
25.82104206085205

>  <fragmenstein_outcome>  (309) 
too moved

>  <fragmenstein_mode>  (309) 
expansion

>  <fragmenstein_error>  (309) 


$$$$
C5047-P112
     RDKit          3D

 50 51  0  0  0  0  0  0  0  0999 V2000
  -15.2824  -27.0737   26.3758 C   0  0  0  0  0  0  0  0  0  0  0  0
  -16.3003  -26.4995   25.4295 C   0  0  0  0  0  0  0  0  0  0  0  0
  -17.0197  -25.4534   25.8343 N   0  0  0  0  0  0  0  0  0  0  0  0
  -17.9128  -24.9769   24.9518 C   0  0  0  0  0  0  0  0  0  0  0  0
  -18.1287  -25.5212   23.7021 C   0  0  0  0  0  0  0  0  0  0  0  0
  -17.3563  -26.6030   23.3619 C   0  0  0  0  0  0  0  0  0  0  0  0
  -17.5078  -27.3397   22.1939 N   0  0  0  0  0  0  0  0  0  0  0  0
  -17.8950  -26.7430   20.9055 C   0  0  0  0  0  0  0  0  0  0  0  0
  -17.6386  -27.7063   19.6976 C   0  0  0  0  0  0  0  0  0  0  0  0
  -16.8752  -27.0314   18.6312 N   0  0  0  0  0  0  0  0  0  0  0  0
  -15.8218  -27.5223   17.7566 C   0  0  0  0  0  0  0  0  0  0  0  0
  -15.3631  -28.6217   17.6291 O   0  0  0  0  0  0  0  0  0  0  0  0
  -15.2622  -26.3544   16.8845 C   0  0  0  0  0  0  0  0  0  0  0  0
  -16.2814  -25.7948   15.8909 C   0  0  0  0  0  0  0  0  0  0  0  0
  -14.0181  -26.7195   16.1888 N   0  0  0  0  0  0  0  0  0  0  0  0
  -13.8636  -27.5671   15.1235 C   0  0  0  0  0  0  0  0  0  0  0  0
  -12.5312  -27.5326   14.7871 C   0  0  0  0  0  0  0  0  0  0  0  0
  -11.9635  -26.6172   15.6863 C   0  0  0  0  0  0  0  0  0  0  0  0
  -12.8697  -26.0835   16.5105 N   0  0  0  0  0  0  0  0  0  0  0  0
  -18.9359  -28.3923   19.1409 C   0  0  0  0  0  0  0  0  0  0  0  0
  -19.8909  -27.3722   18.4902 C   0  0  0  0  0  0  0  0  0  0  0  0
  -19.6837  -29.1223   20.2764 C   0  0  0  0  0  0  0  0  0  0  0  0
  -18.5730  -29.4511   18.0764 C   0  0  0  0  0  0  0  0  0  0  0  0
  -16.4282  -27.0661   24.2159 N   0  0  0  0  0  0  0  0  0  0  0  0
  -14.2945  -26.6588   26.1578 H   0  0  0  0  0  0  0  0  0  0  0  0
  -15.2380  -28.1616   26.2677 H   0  0  0  0  0  0  0  0  0  0  0  0
  -15.5521  -26.8618   27.4144 H   0  0  0  0  0  0  0  0  0  0  0  0
  -18.4944  -24.1264   25.2974 H   0  0  0  0  0  0  0  0  0  0  0  0
  -18.8999  -25.1323   23.0522 H   0  0  0  0  0  0  0  0  0  0  0  0
  -16.7456  -28.0107   22.1542 H   0  0  0  0  0  0  0  0  0  0  0  0
  -18.9396  -26.4247   20.9553 H   0  0  0  0  0  0  0  0  0  0  0  0
  -17.3096  -25.8506   20.7555 H   0  0  0  0  0  0  0  0  0  0  0  0
  -16.9711  -28.5110   20.0351 H   0  0  0  0  0  0  0  0  0  0  0  0
  -17.0614  -26.0586   18.4125 H   0  0  0  0  0  0  0  0  0  0  0  0
  -14.9787  -25.5508   17.5776 H   0  0  0  0  0  0  0  0  0  0  0  0
  -16.6728  -26.5834   15.2386 H   0  0  0  0  0  0  0  0  0  0  0  0
  -15.8336  -25.0209   15.2576 H   0  0  0  0  0  0  0  0  0  0  0  0
  -17.1382  -25.3473   16.4041 H   0  0  0  0  0  0  0  0  0  0  0  0
  -14.6920  -28.1359   14.7250 H   0  0  0  0  0  0  0  0  0  0  0  0
  -12.0383  -28.0978   14.0094 H   0  0  0  0  0  0  0  0  0  0  0  0
  -10.9283  -26.3096   15.7658 H   0  0  0  0  0  0  0  0  0  0  0  0
  -19.4108  -26.8464   17.6578 H   0  0  0  0  0  0  0  0  0  0  0  0
  -20.2392  -26.6199   19.2040 H   0  0  0  0  0  0  0  0  0  0  0  0
  -20.7808  -27.8715   18.0891 H   0  0  0  0  0  0  0  0  0  0  0  0
  -20.5416  -29.6833   19.8876 H   0  0  0  0  0  0  0  0  0  0  0  0
  -19.0254  -29.8354   20.7853 H   0  0  0  0  0  0  0  0  0  0  0  0
  -20.0729  -28.4271   21.0268 H   0  0  0  0  0  0  0  0  0  0  0  0
  -18.1502  -28.9945   17.1757 H   0  0  0  0  0  0  0  0  0  0  0  0
  -19.4596  -30.0132   17.7600 H   0  0  0  0  0  0  0  0  0  0  0  0
  -17.8473  -30.1729   18.4672 H   0  0  0  0  0  0  0  0  0  0  0  0
  1  2  1  0
  2  3  2  0
  3  4  1  0
  4  5  2  0
  5  6  1  0
  6  7  1  0
  7  8  1  0
  8  9  1  0
  9 10  1  0
 10 11  1  0
 11 12  2  0
 11 13  1  0
 13 14  1  0
 13 15  1  0
 15 16  1  0
 16 17  2  0
 17 18  1  0
 18 19  2  0
  9 20  1  0
 20 21  1  0
 20 22  1  0
 20 23  1  0
  6 24  2  0
 24  2  1  0
 19 15  1  0
  1 25  1  0
  1 26  1  0
  1 27  1  0
  4 28  1  0
  5 29  1  0
  7 30  1  0
  8 31  1  0
  8 32  1  0
  9 33  1  0
 10 34  1  0
 13 35  1  0
 14 36  1  0
 14 37  1  0
 14 38  1  0
 16 39  1  0
 17 40  1  0
 18 41  1  0
 21 42  1  0
 21 43  1  0
 21 44  1  0
 22 45  1  0
 22 46  1  0
 22 47  1  0
 23 48  1  0
 23 49  1  0
 23 50  1  0
M  END
>  <Energy>  (310) 
7.9672998334317828

>  <compound_id>  (310) 
5047

>  <target_id>  (310) 
1

>  <reference_id>  (310) 
112

>  <inspiration_ids>  (310) 
[54, 112]

>  <energy_score>  (310) 
-46.02247389501889

>  <distance_score>  (310) 
6.816664715694166

>  <path>  (310) 
/opt/xchem-fragalysis-2/maxwin/BulkDock/SCRATCH/511018/C5047-P112/C5047-P112.minimised.mol

>  <scratch_subdir>  (310) 
/opt/xchem-fragalysis-2/maxwin/BulkDock/SCRATCH/511018/C5047-P112

>  <fragmenstein_runtime>  (310) 
27.613603353500366

>  <fragmenstein_outcome>  (310) 
too moved

>  <fragmenstein_mode>  (310) 
expansion

>  <fragmenstein_error>  (310) 


$$$$
C5048-P54
     RDKit          3D

 34 37  0  0  0  0  0  0  0  0999 V2000
  -15.8570  -26.8772   22.6447 O   0  0  0  0  0  0  0  0  0  0  0  0
  -14.8246  -26.1738   22.6080 C   0  0  0  0  0  0  0  0  0  0  0  0
  -13.7900  -25.7656   21.2180 N   0  0  0  0  0  0  0  0  0  0  0  0
  -13.8361  -26.3222   19.5325 C   0  0  0  0  0  0  0  0  0  0  0  0
  -13.8574  -25.3249   18.5327 C   0  0  0  0  0  0  0  0  0  0  0  0
  -14.5921  -25.3567   17.3729 N   0  0  0  0  0  0  0  0  0  0  0  0
  -15.4952  -26.3287   17.2975 C   0  0  0  0  0  0  0  0  0  0  0  0
  -15.5192  -27.3634   18.1382 N   0  0  0  0  0  0  0  0  0  0  0  0
  -14.3840  -27.4437   18.9003 C   0  0  0  0  0  0  0  0  0  0  0  0
  -13.3829  -28.2168   18.1343 N   0  0  0  0  0  0  0  0  0  0  0  0
  -13.6641  -29.1677   17.1627 C   0  0  0  0  0  0  0  0  0  0  0  0
  -12.5152  -29.3627   16.4358 C   0  0  0  0  0  0  0  0  0  0  0  0
  -11.5679  -28.5475   17.0644 C   0  0  0  0  0  0  0  0  0  0  0  0
  -12.0598  -27.9213   18.1349 N   0  0  0  0  0  0  0  0  0  0  0  0
  -14.3669  -25.6740   24.2862 C   0  0  0  0  0  0  0  0  0  0  0  0
  -14.7643  -26.5091   25.3656 C   0  0  0  0  0  0  0  0  0  0  0  0
  -14.3872  -26.3277   26.7195 C   0  0  0  0  0  0  0  0  0  0  0  0
  -13.6064  -25.2192   27.0100 C   0  0  0  0  0  0  0  0  0  0  0  0
  -13.0082  -24.7814   28.1583 N   0  0  0  0  0  0  0  0  0  0  0  0
  -12.3169  -23.6405   28.0068 N   0  0  0  0  0  0  0  0  0  0  0  0
  -12.5333  -23.3085   26.7299 C   0  0  0  0  0  0  0  0  0  0  0  0
  -13.3332  -24.2574   26.0550 C   0  0  0  0  0  0  0  0  0  0  0  0
  -13.8232  -24.4389   24.7316 C   0  0  0  0  0  0  0  0  0  0  0  0
  -13.1010  -25.1277   21.4920 H   0  0  0  0  0  0  0  0  0  0  0  0
  -13.5202  -24.3219   18.7524 H   0  0  0  0  0  0  0  0  0  0  0  0
  -16.2423  -26.2767   16.5165 H   0  0  0  0  0  0  0  0  0  0  0  0
  -14.6669  -29.5537   17.0467 H   0  0  0  0  0  0  0  0  0  0  0  0
  -12.3867  -29.9950   15.5691 H   0  0  0  0  0  0  0  0  0  0  0  0
  -10.5284  -28.3963   16.7991 H   0  0  0  0  0  0  0  0  0  0  0  0
  -15.4285  -27.3559   25.1901 H   0  0  0  0  0  0  0  0  0  0  0  0
  -14.6942  -27.0374   27.4819 H   0  0  0  0  0  0  0  0  0  0  0  0
  -13.0098  -25.2236   29.0700 H   0  0  0  0  0  0  0  0  0  0  0  0
  -12.0906  -22.3986   26.3407 H   0  0  0  0  0  0  0  0  0  0  0  0
  -13.6602  -23.6168   24.0369 H   0  0  0  0  0  0  0  0  0  0  0  0
  1  2  2  0
  2  3  1  0
  3  4  1  0
  4  5  2  0
  5  6  1  0
  6  7  2  0
  7  8  1  0
  8  9  2  0
  9 10  1  0
 10 11  1  0
 11 12  2  0
 12 13  1  0
 13 14  2  0
  2 15  1  0
 15 16  2  0
 16 17  1  0
 17 18  2  0
 18 19  1  0
 19 20  1  0
 20 21  2  0
 21 22  1  0
 22 23  2  0
  9  4  1  0
 14 10  1  0
 23 15  1  0
 22 18  1  0
  3 24  1  0
  5 25  1  0
  7 26  1  0
 11 27  1  0
 12 28  1  0
 13 29  1  0
 16 30  1  0
 17 31  1  0
 19 32  1  0
 21 33  1  0
 23 34  1  0
M  END
>  <Energy>  (311) 
281.44266608050498

>  <compound_id>  (311) 
5048

>  <target_id>  (311) 
1

>  <reference_id>  (311) 
54

>  <inspiration_ids>  (311) 
[54, 112]

>  <energy_score>  (311) 
137.69799351946062

>  <distance_score>  (311) 
7.124482777686527

>  <path>  (311) 
/opt/xchem-fragalysis-2/maxwin/BulkDock/SCRATCH/511018/C5048-P54/C5048-P54.minimised.mol

>  <scratch_subdir>  (311) 
/opt/xchem-fragalysis-2/maxwin/BulkDock/SCRATCH/511018/C5048-P54

>  <fragmenstein_runtime>  (311) 
14.71568512916565

>  <fragmenstein_outcome>  (311) 
too moved

>  <fragmenstein_mode>  (311) 
expansion

>  <fragmenstein_error>  (311) 


$$$$
C5048-P112
     RDKit          3D

 34 37  0  0  0  0  0  0  0  0999 V2000
   -7.9599  -24.9505   19.7981 O   0  0  0  0  0  0  0  0  0  0  0  0
   -8.7205  -24.6942   20.6753 C   0  0  0  0  0  0  0  0  0  0  0  0
  -10.6341  -25.0015   20.5150 N   0  0  0  0  0  0  0  0  0  0  0  0
  -11.7028  -25.8473   19.1130 C   0  0  0  0  0  0  0  0  0  0  0  0
  -13.0714  -25.5681   19.3725 C   0  0  0  0  0  0  0  0  0  0  0  0
  -14.2451  -25.9385   18.8021 N   0  0  0  0  0  0  0  0  0  0  0  0
  -14.1327  -26.7200   17.7589 C   0  0  0  0  0  0  0  0  0  0  0  0
  -12.9682  -27.0169   17.2262 N   0  0  0  0  0  0  0  0  0  0  0  0
  -11.7840  -26.5423   17.7958 C   0  0  0  0  0  0  0  0  0  0  0  0
  -10.8271  -26.6051   16.7002 N   0  0  0  0  0  0  0  0  0  0  0  0
  -11.1383  -26.2346   15.3826 C   0  0  0  0  0  0  0  0  0  0  0  0
  -10.1050  -26.6403   14.5777 C   0  0  0  0  0  0  0  0  0  0  0  0
   -9.3052  -27.4039   15.4310 C   0  0  0  0  0  0  0  0  0  0  0  0
   -9.8178  -27.4951   16.6568 N   0  0  0  0  0  0  0  0  0  0  0  0
   -7.7721  -23.8705   22.0027 C   0  0  0  0  0  0  0  0  0  0  0  0
   -8.0116  -23.1275   23.3047 C   0  0  0  0  0  0  0  0  0  0  0  0
   -6.8482  -23.3758   24.1601 C   0  0  0  0  0  0  0  0  0  0  0  0
   -5.4119  -23.2604   23.8612 C   0  0  0  0  0  0  0  0  0  0  0  0
   -4.2824  -22.9220   24.5690 N   0  0  0  0  0  0  0  0  0  0  0  0
   -3.1331  -23.1984   23.9197 N   0  0  0  0  0  0  0  0  0  0  0  0
   -3.5536  -23.7067   22.7539 C   0  0  0  0  0  0  0  0  0  0  0  0
   -4.9483  -23.7721   22.7072 C   0  0  0  0  0  0  0  0  0  0  0  0
   -6.0245  -24.0510   21.8663 C   0  0  0  0  0  0  0  0  0  0  0  0
  -11.0811  -24.6559   21.2859 H   0  0  0  0  0  0  0  0  0  0  0  0
  -13.1635  -24.8403   20.1402 H   0  0  0  0  0  0  0  0  0  0  0  0
  -15.0293  -27.1061   17.2921 H   0  0  0  0  0  0  0  0  0  0  0  0
  -12.0533  -25.7058   15.1666 H   0  0  0  0  0  0  0  0  0  0  0  0
   -9.9765  -26.4587   13.5210 H   0  0  0  0  0  0  0  0  0  0  0  0
   -8.3879  -27.9363   15.2106 H   0  0  0  0  0  0  0  0  0  0  0  0
   -9.0029  -22.8397   23.5821 H   0  0  0  0  0  0  0  0  0  0  0  0
   -7.0951  -23.2884   25.2281 H   0  0  0  0  0  0  0  0  0  0  0  0
   -4.2268  -22.5226   25.4985 H   0  0  0  0  0  0  0  0  0  0  0  0
   -2.8315  -23.9866   21.9980 H   0  0  0  0  0  0  0  0  0  0  0  0
   -5.6561  -24.1900   20.8163 H   0  0  0  0  0  0  0  0  0  0  0  0
  1  2  2  0
  2  3  1  0
  3  4  1  0
  4  5  2  0
  5  6  1  0
  6  7  2  0
  7  8  1  0
  8  9  2  0
  9 10  1  0
 10 11  1  0
 11 12  2  0
 12 13  1  0
 13 14  2  0
  2 15  1  0
 15 16  2  0
 16 17  1  0
 17 18  2  0
 18 19  1  0
 19 20  1  0
 20 21  2  0
 21 22  1  0
 22 23  2  0
  9  4  1  0
 14 10  1  0
 23 15  1  0
 22 18  1  0
  3 24  1  0
  5 25  1  0
  7 26  1  0
 11 27  1  0
 12 28  1  0
 13 29  1  0
 16 30  1  0
 17 31  1  0
 19 32  1  0
 21 33  1  0
 23 34  1  0
M  END
>  <Energy>  (312) 
484.07625984871083

>  <compound_id>  (312) 
5048

>  <target_id>  (312) 
1

>  <reference_id>  (312) 
112

>  <inspiration_ids>  (312) 
[54, 112]

>  <energy_score>  (312) 
340.33158728765704

>  <distance_score>  (312) 
7.3710276046836505

>  <path>  (312) 
/opt/xchem-fragalysis-2/maxwin/BulkDock/SCRATCH/511018/C5048-P112/C5048-P112.minimised.mol

>  <scratch_subdir>  (312) 
/opt/xchem-fragalysis-2/maxwin/BulkDock/SCRATCH/511018/C5048-P112

>  <fragmenstein_runtime>  (312) 
11.646889686584473

>  <fragmenstein_outcome>  (312) 
too moved

>  <fragmenstein_mode>  (312) 
expansion

>  <fragmenstein_error>  (312) 


$$$$
C5051-P54
     RDKit          3D

 34 37  0  0  0  0  0  0  0  0999 V2000
  -13.4200  -25.3122   21.2406 O   0  0  0  0  0  0  0  0  0  0  0  0
  -13.1581  -24.5800   20.3470 C   0  0  0  0  0  0  0  0  0  0  0  0
  -13.4572  -24.7831   18.8135 N   0  0  0  0  0  0  0  0  0  0  0  0
  -14.0182  -25.9125   18.0955 C   0  0  0  0  0  0  0  0  0  0  0  0
  -14.5630  -26.9485   18.7559 N   0  0  0  0  0  0  0  0  0  0  0  0
  -15.6510  -27.2460   18.0333 N   0  0  0  0  0  0  0  0  0  0  0  0
  -15.6412  -26.6949   16.7869 C   0  0  0  0  0  0  0  0  0  0  0  0
  -16.5727  -26.7269   15.7425 C   0  0  0  0  0  0  0  0  0  0  0  0
  -16.1413  -26.2897   14.4922 C   0  0  0  0  0  0  0  0  0  0  0  0
  -14.7924  -26.0295   14.2768 C   0  0  0  0  0  0  0  0  0  0  0  0
  -13.8714  -26.0822   15.3490 C   0  0  0  0  0  0  0  0  0  0  0  0
  -12.5106  -26.3934   15.0450 N   0  0  0  0  0  0  0  0  0  0  0  0
  -11.8556  -26.3040   13.8316 C   0  0  0  0  0  0  0  0  0  0  0  0
  -10.5582  -26.7073   14.0424 C   0  0  0  0  0  0  0  0  0  0  0  0
  -10.5126  -27.0480   15.4004 C   0  0  0  0  0  0  0  0  0  0  0  0
  -11.6863  -26.8741   16.0076 N   0  0  0  0  0  0  0  0  0  0  0  0
  -14.3624  -26.1395   16.6880 C   0  0  0  0  0  0  0  0  0  0  0  0
  -12.4279  -22.9551   21.0384 C   0  0  0  0  0  0  0  0  0  0  0  0
  -12.7415  -22.5177   22.4345 C   0  0  0  0  0  0  0  0  0  0  0  0
  -11.9766  -21.6338   23.1765 C   0  0  0  0  0  0  0  0  0  0  0  0
  -10.8828  -21.1180   22.6658 N   0  0  0  0  0  0  0  0  0  0  0  0
  -10.6466  -21.5036   21.4042 C   0  0  0  0  0  0  0  0  0  0  0  0
  -11.4103  -22.2667   20.5747 N   0  0  0  0  0  0  0  0  0  0  0  0
  -13.1938  -23.9637   18.3202 H   0  0  0  0  0  0  0  0  0  0  0  0
  -16.3487  -27.8576   18.4404 H   0  0  0  0  0  0  0  0  0  0  0  0
  -17.5793  -27.1074   15.8857 H   0  0  0  0  0  0  0  0  0  0  0  0
  -16.8352  -26.2892   13.6540 H   0  0  0  0  0  0  0  0  0  0  0  0
  -14.4682  -25.9004   13.2486 H   0  0  0  0  0  0  0  0  0  0  0  0
  -12.3370  -25.9321   12.9418 H   0  0  0  0  0  0  0  0  0  0  0  0
   -9.7541  -26.7383   13.3216 H   0  0  0  0  0  0  0  0  0  0  0  0
   -9.6694  -27.4058   15.9797 H   0  0  0  0  0  0  0  0  0  0  0  0
  -13.5300  -23.0207   22.9920 H   0  0  0  0  0  0  0  0  0  0  0  0
  -12.2143  -21.3724   24.2014 H   0  0  0  0  0  0  0  0  0  0  0  0
   -9.6732  -21.2589   20.9953 H   0  0  0  0  0  0  0  0  0  0  0  0
  1  2  2  0
  2  3  1  0
  3  4  1  0
  4  5  2  0
  5  6  1  0
  6  7  1  0
  7  8  2  0
  8  9  1  0
  9 10  2  0
 10 11  1  0
 11 12  1  0
 12 13  1  0
 13 14  2  0
 14 15  1  0
 15 16  2  0
 11 17  2  0
  2 18  1  0
 18 19  2  0
 19 20  1  0
 20 21  2  0
 21 22  1  0
 22 23  2  0
 17  4  1  0
 23 18  1  0
 17  7  1  0
 16 12  1  0
  3 24  1  0
  6 25  1  0
  8 26  1  0
  9 27  1  0
 10 28  1  0
 13 29  1  0
 14 30  1  0
 15 31  1  0
 19 32  1  0
 20 33  1  0
 22 34  1  0
M  END
>  <Energy>  (313) 
156.30283733306885

>  <compound_id>  (313) 
5051

>  <target_id>  (313) 
1

>  <reference_id>  (313) 
54

>  <inspiration_ids>  (313) 
[54, 112]

>  <energy_score>  (313) 
77.79820755708005

>  <distance_score>  (313) 
5.357537413688524

>  <path>  (313) 
/opt/xchem-fragalysis-2/maxwin/BulkDock/SCRATCH/511018/C5051-P54/C5051-P54.minimised.mol

>  <scratch_subdir>  (313) 
/opt/xchem-fragalysis-2/maxwin/BulkDock/SCRATCH/511018/C5051-P54

>  <fragmenstein_runtime>  (313) 
10.258669137954712

>  <fragmenstein_outcome>  (313) 
too moved

>  <fragmenstein_mode>  (313) 
expansion

>  <fragmenstein_error>  (313) 


$$$$
C5051-P112
     RDKit          3D

 34 37  0  0  0  0  0  0  0  0999 V2000
  -10.6112  -22.3032   20.6873 O   0  0  0  0  0  0  0  0  0  0  0  0
  -11.6823  -22.4885   21.1905 C   0  0  0  0  0  0  0  0  0  0  0  0
  -12.8090  -23.3406   20.7813 N   0  0  0  0  0  0  0  0  0  0  0  0
  -12.9867  -24.5106   19.4639 C   0  0  0  0  0  0  0  0  0  0  0  0
  -13.6889  -24.0692   18.2778 N   0  0  0  0  0  0  0  0  0  0  0  0
  -14.6373  -24.9319   17.9237 N   0  0  0  0  0  0  0  0  0  0  0  0
  -14.5867  -26.1048   18.5902 C   0  0  0  0  0  0  0  0  0  0  0  0
  -15.3631  -27.2569   18.4392 C   0  0  0  0  0  0  0  0  0  0  0  0
  -14.6477  -28.4464   18.4788 C   0  0  0  0  0  0  0  0  0  0  0  0
  -13.2620  -28.3858   18.3877 C   0  0  0  0  0  0  0  0  0  0  0  0
  -12.6404  -27.1106   18.3519 C   0  0  0  0  0  0  0  0  0  0  0  0
  -11.8884  -26.9311   17.1286 N   0  0  0  0  0  0  0  0  0  0  0  0
  -12.1415  -26.0536   16.0956 C   0  0  0  0  0  0  0  0  0  0  0  0
  -11.2415  -26.3095   15.0888 C   0  0  0  0  0  0  0  0  0  0  0  0
  -10.5767  -27.4578   15.5180 C   0  0  0  0  0  0  0  0  0  0  0  0
  -11.0610  -27.9130   16.6729 N   0  0  0  0  0  0  0  0  0  0  0  0
  -13.2961  -26.0559   19.1322 C   0  0  0  0  0  0  0  0  0  0  0  0
  -12.2544  -21.9660   22.5598 C   0  0  0  0  0  0  0  0  0  0  0  0
  -11.5867  -21.3184   23.4981 C   0  0  0  0  0  0  0  0  0  0  0  0
  -12.1136  -21.5629   24.7481 C   0  0  0  0  0  0  0  0  0  0  0  0
  -12.9517  -22.5412   25.1117 N   0  0  0  0  0  0  0  0  0  0  0  0
  -13.7678  -22.8502   24.1743 C   0  0  0  0  0  0  0  0  0  0  0  0
  -13.4558  -22.5870   22.9174 N   0  0  0  0  0  0  0  0  0  0  0  0
  -13.5747  -23.1786   21.3939 H   0  0  0  0  0  0  0  0  0  0  0  0
  -15.2995  -24.6487   17.2068 H   0  0  0  0  0  0  0  0  0  0  0  0
  -16.3998  -27.2322   18.1198 H   0  0  0  0  0  0  0  0  0  0  0  0
  -15.1573  -29.3968   18.3375 H   0  0  0  0  0  0  0  0  0  0  0  0
  -12.7321  -29.2731   18.0396 H   0  0  0  0  0  0  0  0  0  0  0  0
  -12.9338  -25.3336   16.1525 H   0  0  0  0  0  0  0  0  0  0  0  0
  -11.1171  -25.7675   14.1624 H   0  0  0  0  0  0  0  0  0  0  0  0
   -9.7922  -28.0132   15.0194 H   0  0  0  0  0  0  0  0  0  0  0  0
  -10.7071  -20.7521   23.2969 H   0  0  0  0  0  0  0  0  0  0  0  0
  -11.7801  -21.0479   25.6297 H   0  0  0  0  0  0  0  0  0  0  0  0
  -14.6720  -23.3830   24.4224 H   0  0  0  0  0  0  0  0  0  0  0  0
  1  2  2  0
  2  3  1  0
  3  4  1  0
  4  5  2  0
  5  6  1  0
  6  7  1  0
  7  8  2  0
  8  9  1  0
  9 10  2  0
 10 11  1  0
 11 12  1  0
 12 13  1  0
 13 14  2  0
 14 15  1  0
 15 16  2  0
 11 17  2  0
  2 18  1  0
 18 19  2  0
 19 20  1  0
 20 21  2  0
 21 22  1  0
 22 23  2  0
 17  4  1  0
 23 18  1  0
 17  7  1  0
 16 12  1  0
  3 24  1  0
  6 25  1  0
  8 26  1  0
  9 27  1  0
 10 28  1  0
 13 29  1  0
 14 30  1  0
 15 31  1  0
 19 32  1  0
 20 33  1  0
 22 34  1  0
M  END
>  <Energy>  (314) 
263.914833215626

>  <compound_id>  (314) 
5051

>  <target_id>  (314) 
1

>  <reference_id>  (314) 
112

>  <inspiration_ids>  (314) 
[54, 112]

>  <energy_score>  (314) 
185.41020343963578

>  <distance_score>  (314) 
5.626477757897667

>  <path>  (314) 
/opt/xchem-fragalysis-2/maxwin/BulkDock/SCRATCH/511018/C5051-P112/C5051-P112.minimised.mol

>  <scratch_subdir>  (314) 
/opt/xchem-fragalysis-2/maxwin/BulkDock/SCRATCH/511018/C5051-P112

>  <fragmenstein_runtime>  (314) 
7.711009502410889

>  <fragmenstein_outcome>  (314) 
too moved

>  <fragmenstein_mode>  (314) 
expansion

>  <fragmenstein_error>  (314) 


$$$$
C5058-P54
     RDKit          3D

 44 46  0  0  0  0  0  0  0  0999 V2000
  -14.0659  -24.5787   17.6811 O   0  0  0  0  0  0  0  0  0  0  0  0
  -14.3978  -25.6407   18.1566 C   0  0  0  0  0  0  0  0  0  0  0  0
  -15.5810  -26.1759   17.7712 O   0  0  0  0  0  0  0  0  0  0  0  0
  -13.6568  -26.4279   19.2608 C   0  0  0  0  0  0  0  0  0  0  0  0
  -13.7419  -27.8851   18.6896 C   0  0  0  0  0  0  0  0  0  0  0  0
  -13.2424  -27.9629   17.2953 N   0  0  0  0  0  0  0  0  0  0  0  0
  -13.9392  -28.2716   16.1615 C   0  0  0  0  0  0  0  0  0  0  0  0
  -13.0593  -28.1123   15.1145 C   0  0  0  0  0  0  0  0  0  0  0  0
  -11.8495  -27.7327   15.7185 C   0  0  0  0  0  0  0  0  0  0  0  0
  -11.9554  -27.6579   17.0457 N   0  0  0  0  0  0  0  0  0  0  0  0
  -13.6096  -25.5800   20.7543 N   0  0  0  0  0  0  0  0  0  0  0  0
  -14.2383  -25.8865   22.4296 C   0  0  0  0  0  0  0  0  0  0  0  0
  -14.0647  -25.3831   24.2419 C   0  0  0  0  0  0  0  0  0  0  0  0
  -13.9915  -26.2629   25.3149 C   0  0  0  0  0  0  0  0  0  0  0  0
  -13.5398  -25.9440   26.5700 N   0  0  0  0  0  0  0  0  0  0  0  0
  -13.2139  -24.6696   26.8462 C   0  0  0  0  0  0  0  0  0  0  0  0
  -12.6213  -24.3413   28.0630 N   0  0  0  0  0  0  0  0  0  0  0  0
  -11.8768  -23.0689   28.1626 C   0  0  0  0  0  0  0  0  0  0  0  0
  -10.3780  -23.3296   28.3937 C   0  0  0  0  0  0  0  0  0  0  0  0
  -10.0785  -24.1215   29.5536 O   0  0  0  0  0  0  0  0  0  0  0  0
  -11.1927  -24.9032   29.9982 C   0  0  0  0  0  0  0  0  0  0  0  0
  -12.0463  -25.4500   28.8369 C   0  0  0  0  0  0  0  0  0  0  0  0
  -13.4385  -23.7127   25.9443 N   0  0  0  0  0  0  0  0  0  0  0  0
  -13.8517  -24.0665   24.6956 C   0  0  0  0  0  0  0  0  0  0  0  0
  -15.9115  -25.5229   17.1148 H   0  0  0  0  0  0  0  0  0  0  0  0
  -12.6325  -26.2717   18.9976 H   0  0  0  0  0  0  0  0  0  0  0  0
  -14.7606  -28.2867   18.6950 H   0  0  0  0  0  0  0  0  0  0  0  0
  -13.0825  -28.5862   19.1883 H   0  0  0  0  0  0  0  0  0  0  0  0
  -14.9829  -28.5513   16.1903 H   0  0  0  0  0  0  0  0  0  0  0  0
  -13.2618  -28.2544   14.0628 H   0  0  0  0  0  0  0  0  0  0  0  0
  -10.8969  -27.5100   15.2536 H   0  0  0  0  0  0  0  0  0  0  0  0
  -12.6666  -25.1784   20.7772 H   0  0  0  0  0  0  0  0  0  0  0  0
  -13.8980  -26.8064   22.6648 H   0  0  0  0  0  0  0  0  0  0  0  0
  -13.6389  -25.0004   22.4189 H   0  0  0  0  0  0  0  0  0  0  0  0
  -14.2138  -27.3162   25.2454 H   0  0  0  0  0  0  0  0  0  0  0  0
  -12.2752  -22.5190   29.0238 H   0  0  0  0  0  0  0  0  0  0  0  0
  -11.9893  -22.4212   27.2874 H   0  0  0  0  0  0  0  0  0  0  0  0
   -9.8416  -22.3813   28.4945 H   0  0  0  0  0  0  0  0  0  0  0  0
   -9.9570  -23.8528   27.5283 H   0  0  0  0  0  0  0  0  0  0  0  0
  -10.8053  -25.7286   30.6008 H   0  0  0  0  0  0  0  0  0  0  0  0
  -11.7846  -24.2707   30.6621 H   0  0  0  0  0  0  0  0  0  0  0  0
  -11.4014  -26.0627   28.1936 H   0  0  0  0  0  0  0  0  0  0  0  0
  -12.8471  -26.0799   29.2402 H   0  0  0  0  0  0  0  0  0  0  0  0
  -13.8703  -23.2116   24.0205 H   0  0  0  0  0  0  0  0  0  0  0  0
  1  2  2  0
  2  3  1  0
  2  4  1  0
  4  5  1  0
  5  6  1  0
  6  7  1  0
  7  8  2  0
  8  9  1  0
  9 10  2  0
  4 11  1  0
 11 12  1  0
 12 13  1  0
 13 14  2  0
 14 15  1  0
 15 16  2  0
 16 17  1  0
 17 18  1  0
 18 19  1  0
 19 20  1  0
 20 21  1  0
 21 22  1  0
 16 23  1  0
 23 24  2  0
 10  6  1  0
 24 13  1  0
 22 17  1  0
  3 25  1  0
  4 26  1  0
  5 27  1  0
  5 28  1  0
  7 29  1  0
  8 30  1  0
  9 31  1  0
 11 32  1  0
 12 33  1  0
 12 34  1  0
 14 35  1  0
 18 36  1  0
 18 37  1  0
 19 38  1  0
 19 39  1  0
 21 40  1  0
 21 41  1  0
 22 42  1  0
 22 43  1  0
 24 44  1  0
M  END
>  <Energy>  (315) 
230.88856566169335

>  <compound_id>  (315) 
5058

>  <target_id>  (315) 
1

>  <reference_id>  (315) 
54

>  <inspiration_ids>  (315) 
[54, 112]

>  <energy_score>  (315) 
173.93651075334674

>  <distance_score>  (315) 
5.125169473716521

>  <path>  (315) 
/opt/xchem-fragalysis-2/maxwin/BulkDock/SCRATCH/511018/C5058-P54/C5058-P54.minimised.mol

>  <scratch_subdir>  (315) 
/opt/xchem-fragalysis-2/maxwin/BulkDock/SCRATCH/511018/C5058-P54

>  <fragmenstein_runtime>  (315) 
14.84795880317688

>  <fragmenstein_outcome>  (315) 
too moved

>  <fragmenstein_mode>  (315) 
expansion

>  <fragmenstein_error>  (315) 


$$$$
C5058-P112
     RDKit          3D

 44 46  0  0  0  0  0  0  0  0999 V2000
  -16.5420  -27.0491   19.2583 O   0  0  0  0  0  0  0  0  0  0  0  0
  -15.9941  -27.0779   20.3472 C   0  0  0  0  0  0  0  0  0  0  0  0
  -16.7124  -27.4329   21.4362 O   0  0  0  0  0  0  0  0  0  0  0  0
  -14.3958  -26.7440   20.6592 C   0  0  0  0  0  0  0  0  0  0  0  0
  -13.7989  -27.7463   19.4790 C   0  0  0  0  0  0  0  0  0  0  0  0
  -13.4792  -27.1193   18.1831 N   0  0  0  0  0  0  0  0  0  0  0  0
  -14.1977  -26.2305   17.4339 C   0  0  0  0  0  0  0  0  0  0  0  0
  -13.5078  -26.0537   16.2557 C   0  0  0  0  0  0  0  0  0  0  0  0
  -12.3832  -26.8797   16.3764 C   0  0  0  0  0  0  0  0  0  0  0  0
  -12.3691  -27.5365   17.5364 N   0  0  0  0  0  0  0  0  0  0  0  0
  -14.2204  -26.6030   22.6314 N   0  0  0  0  0  0  0  0  0  0  0  0
  -14.4593  -25.9361   24.2564 C   0  0  0  0  0  0  0  0  0  0  0  0
  -13.1958  -25.6899   25.5601 C   0  0  0  0  0  0  0  0  0  0  0  0
  -12.7640  -24.4250   25.9858 C   0  0  0  0  0  0  0  0  0  0  0  0
  -11.6315  -24.0757   26.8145 N   0  0  0  0  0  0  0  0  0  0  0  0
  -10.8493  -24.9507   27.5452 C   0  0  0  0  0  0  0  0  0  0  0  0
   -9.9629  -24.3609   28.7258 N   0  0  0  0  0  0  0  0  0  0  0  0
  -10.8638  -22.9244   28.9930 C   0  0  0  0  0  0  0  0  0  0  0  0
  -11.3843  -22.4188   30.5069 C   0  0  0  0  0  0  0  0  0  0  0  0
  -10.9745  -23.5231   31.8079 O   0  0  0  0  0  0  0  0  0  0  0  0
   -9.6264  -24.3722   31.8230 C   0  0  0  0  0  0  0  0  0  0  0  0
   -8.6814  -24.8432   30.1615 C   0  0  0  0  0  0  0  0  0  0  0  0
  -11.1621  -26.2419   27.2069 N   0  0  0  0  0  0  0  0  0  0  0  0
  -12.3125  -26.5531   26.2681 C   0  0  0  0  0  0  0  0  0  0  0  0
  -17.6245  -27.5555   21.0946 H   0  0  0  0  0  0  0  0  0  0  0  0
  -13.9988  -25.8048   20.2555 H   0  0  0  0  0  0  0  0  0  0  0  0
  -14.5110  -28.5445   19.2296 H   0  0  0  0  0  0  0  0  0  0  0  0
  -12.8852  -28.2662   19.7596 H   0  0  0  0  0  0  0  0  0  0  0  0
  -15.1414  -25.8182   17.7542 H   0  0  0  0  0  0  0  0  0  0  0  0
  -13.7932  -25.4283   15.4216 H   0  0  0  0  0  0  0  0  0  0  0  0
  -11.5790  -27.0403   15.6692 H   0  0  0  0  0  0  0  0  0  0  0  0
  -13.5295  -25.8685   22.4889 H   0  0  0  0  0  0  0  0  0  0  0  0
  -15.1979  -26.5932   24.7236 H   0  0  0  0  0  0  0  0  0  0  0  0
  -14.8778  -24.9379   24.1669 H   0  0  0  0  0  0  0  0  0  0  0  0
  -13.2564  -23.5206   25.6159 H   0  0  0  0  0  0  0  0  0  0  0  0
  -11.8262  -22.9666   28.4914 H   0  0  0  0  0  0  0  0  0  0  0  0
  -10.3685  -22.1260   28.4541 H   0  0  0  0  0  0  0  0  0  0  0  0
  -12.4734  -22.3587   30.5331 H   0  0  0  0  0  0  0  0  0  0  0  0
  -11.0679  -21.4122   30.7874 H   0  0  0  0  0  0  0  0  0  0  0  0
   -9.0961  -23.8624   32.6209 H   0  0  0  0  0  0  0  0  0  0  0  0
   -9.6263  -25.2269   32.5057 H   0  0  0  0  0  0  0  0  0  0  0  0
   -7.8652  -24.1971   30.0679 H   0  0  0  0  0  0  0  0  0  0  0  0
   -8.3967  -25.9154   30.2702 H   0  0  0  0  0  0  0  0  0  0  0  0
  -12.4060  -27.6356   26.1673 H   0  0  0  0  0  0  0  0  0  0  0  0
  1  2  2  0
  2  3  1  0
  2  4  1  0
  4  5  1  0
  5  6  1  0
  6  7  1  0
  7  8  2  0
  8  9  1  0
  9 10  2  0
  4 11  1  0
 11 12  1  0
 12 13  1  0
 13 14  2  0
 14 15  1  0
 15 16  2  0
 16 17  1  0
 17 18  1  0
 18 19  1  0
 19 20  1  0
 20 21  1  0
 21 22  1  0
 16 23  1  0
 23 24  2  0
 10  6  1  0
 24 13  1  0
 22 17  1  0
  3 25  1  0
  4 26  1  0
  5 27  1  0
  5 28  1  0
  7 29  1  0
  8 30  1  0
  9 31  1  0
 11 32  1  0
 12 33  1  0
 12 34  1  0
 14 35  1  0
 18 36  1  0
 18 37  1  0
 19 38  1  0
 19 39  1  0
 21 40  1  0
 21 41  1  0
 22 42  1  0
 22 43  1  0
 24 44  1  0
M  END
>  <Energy>  (316) 
528.60067949093173

>  <compound_id>  (316) 
5058

>  <target_id>  (316) 
1

>  <reference_id>  (316) 
112

>  <inspiration_ids>  (316) 
[54, 112]

>  <energy_score>  (316) 
471.6486245825778

>  <distance_score>  (316) 
5.004511968718422

>  <path>  (316) 
/opt/xchem-fragalysis-2/maxwin/BulkDock/SCRATCH/511018/C5058-P112/C5058-P112.minimised.mol

>  <scratch_subdir>  (316) 
/opt/xchem-fragalysis-2/maxwin/BulkDock/SCRATCH/511018/C5058-P112

>  <fragmenstein_runtime>  (316) 
15.315147638320923

>  <fragmenstein_outcome>  (316) 
too moved

>  <fragmenstein_mode>  (316) 
expansion

>  <fragmenstein_error>  (316) 


$$$$
C5059-P54
     RDKit          3D

 46 47  0  0  0  0  0  0  0  0999 V2000
  -11.6631  -21.5014   29.7481 C   0  0  0  0  0  0  0  0  0  0  0  0
  -11.3272  -22.6713   28.8027 C   0  0  0  0  0  0  0  0  0  0  0  0
  -11.9244  -24.0653   29.0160 N   0  0  0  0  0  0  0  0  0  0  0  0
  -11.0541  -24.0146   30.2547 C   0  0  0  0  0  0  0  0  0  0  0  0
   -9.5196  -23.9777   30.2382 C   0  0  0  0  0  0  0  0  0  0  0  0
  -11.7994  -24.8439   27.8146 C   0  0  0  0  0  0  0  0  0  0  0  0
  -10.9233  -25.5851   27.4499 O   0  0  0  0  0  0  0  0  0  0  0  0
  -13.0742  -24.6773   26.9623 C   0  0  0  0  0  0  0  0  0  0  0  0
  -13.3867  -25.9523   26.1508 C   0  0  0  0  0  0  0  0  0  0  0  0
  -14.4820  -25.8075   25.0697 C   0  0  0  0  0  0  0  0  0  0  0  0
  -13.9734  -25.0642   23.8157 C   0  0  0  0  0  0  0  0  0  0  0  0
  -13.5106  -23.9274   23.9325 O   0  0  0  0  0  0  0  0  0  0  0  0
  -14.1764  -26.0298   22.4318 N   0  0  0  0  0  0  0  0  0  0  0  0
  -13.6724  -25.7570   20.7115 C   0  0  0  0  0  0  0  0  0  0  0  0
  -13.0869  -24.7057   20.1602 C   0  0  0  0  0  0  0  0  0  0  0  0
  -13.5283  -24.2850   18.8718 N   0  0  0  0  0  0  0  0  0  0  0  0
  -13.8337  -25.1348   17.9037 C   0  0  0  0  0  0  0  0  0  0  0  0
  -13.5663  -26.3683   18.0876 N   0  0  0  0  0  0  0  0  0  0  0  0
  -13.8730  -26.6994   19.3618 C   0  0  0  0  0  0  0  0  0  0  0  0
  -14.8183  -27.7911   19.0554 N   0  0  0  0  0  0  0  0  0  0  0  0
  -14.6135  -28.7183   18.0252 C   0  0  0  0  0  0  0  0  0  0  0  0
  -15.8050  -29.3450   17.7839 C   0  0  0  0  0  0  0  0  0  0  0  0
  -16.6828  -28.7743   18.7138 C   0  0  0  0  0  0  0  0  0  0  0  0
  -16.1007  -27.8690   19.5030 N   0  0  0  0  0  0  0  0  0  0  0  0
  -12.6992  -21.5619   30.0922 H   0  0  0  0  0  0  0  0  0  0  0  0
  -11.0041  -21.4467   30.6197 H   0  0  0  0  0  0  0  0  0  0  0  0
  -11.5364  -20.5537   29.2125 H   0  0  0  0  0  0  0  0  0  0  0  0
  -10.2866  -22.6820   28.4446 H   0  0  0  0  0  0  0  0  0  0  0  0
  -11.8299  -22.3610   27.8716 H   0  0  0  0  0  0  0  0  0  0  0  0
  -11.4924  -23.4212   31.0661 H   0  0  0  0  0  0  0  0  0  0  0  0
  -11.2460  -25.0331   30.6325 H   0  0  0  0  0  0  0  0  0  0  0  0
   -9.1343  -24.4366   31.1544 H   0  0  0  0  0  0  0  0  0  0  0  0
   -9.1267  -22.9579   30.2218 H   0  0  0  0  0  0  0  0  0  0  0  0
   -9.1142  -24.5161   29.3780 H   0  0  0  0  0  0  0  0  0  0  0  0
  -13.9283  -24.4409   27.6069 H   0  0  0  0  0  0  0  0  0  0  0  0
  -12.9012  -23.8231   26.3024 H   0  0  0  0  0  0  0  0  0  0  0  0
  -13.7101  -26.7249   26.8604 H   0  0  0  0  0  0  0  0  0  0  0  0
  -12.4716  -26.3372   25.6890 H   0  0  0  0  0  0  0  0  0  0  0  0
  -15.3303  -25.2403   25.4699 H   0  0  0  0  0  0  0  0  0  0  0  0
  -14.8685  -26.7896   24.8055 H   0  0  0  0  0  0  0  0  0  0  0  0
  -14.6481  -26.8454   22.6682 H   0  0  0  0  0  0  0  0  0  0  0  0
  -12.5737  -23.9030   20.6668 H   0  0  0  0  0  0  0  0  0  0  0  0
  -14.1985  -24.7900   16.9508 H   0  0  0  0  0  0  0  0  0  0  0  0
  -13.6459  -28.7950   17.5470 H   0  0  0  0  0  0  0  0  0  0  0  0
  -16.0134  -30.0954   17.0346 H   0  0  0  0  0  0  0  0  0  0  0  0
  -17.7354  -28.9875   18.8555 H   0  0  0  0  0  0  0  0  0  0  0  0
  1  2  1  0
  2  3  1  0
  3  4  1  0
  4  5  1  0
  3  6  1  0
  6  7  2  0
  6  8  1  0
  8  9  1  0
  9 10  1  0
 10 11  1  0
 11 12  2  0
 11 13  1  0
 13 14  1  0
 14 15  2  0
 15 16  1  0
 16 17  2  0
 17 18  1  0
 18 19  2  0
 19 20  1  0
 20 21  1  0
 21 22  2  0
 22 23  1  0
 23 24  2  0
 19 14  1  0
 24 20  1  0
  1 25  1  0
  1 26  1  0
  1 27  1  0
  2 28  1  0
  2 29  1  0
  4 30  1  0
  4 31  1  0
  5 32  1  0
  5 33  1  0
  5 34  1  0
  8 35  1  0
  8 36  1  0
  9 37  1  0
  9 38  1  0
 10 39  1  0
 10 40  1  0
 13 41  1  0
 15 42  1  0
 17 43  1  0
 21 44  1  0
 22 45  1  0
 23 46  1  0
M  END
>  <Energy>  (317) 
299.27968587499089

>  <compound_id>  (317) 
5059

>  <target_id>  (317) 
1

>  <reference_id>  (317) 
54

>  <inspiration_ids>  (317) 
[54, 112]

>  <energy_score>  (317) 
211.149623932564

>  <distance_score>  (317) 
5.768506204505459

>  <path>  (317) 
/opt/xchem-fragalysis-2/maxwin/BulkDock/SCRATCH/511018/C5059-P54/C5059-P54.minimised.mol

>  <scratch_subdir>  (317) 
/opt/xchem-fragalysis-2/maxwin/BulkDock/SCRATCH/511018/C5059-P54

>  <fragmenstein_runtime>  (317) 
18.938076734542847

>  <fragmenstein_outcome>  (317) 
too moved

>  <fragmenstein_mode>  (317) 
expansion

>  <fragmenstein_error>  (317) 


$$$$
C5059-P112
     RDKit          3D

 46 47  0  0  0  0  0  0  0  0999 V2000
   -7.4544  -23.3593   33.8611 C   0  0  0  0  0  0  0  0  0  0  0  0
   -9.1177  -23.5729   32.7998 C   0  0  0  0  0  0  0  0  0  0  0  0
   -9.5502  -24.6237   31.5341 N   0  0  0  0  0  0  0  0  0  0  0  0
   -9.4564  -25.2903   32.7531 C   0  0  0  0  0  0  0  0  0  0  0  0
  -10.6746  -26.5528   33.2406 C   0  0  0  0  0  0  0  0  0  0  0  0
   -8.7356  -24.9328   29.8713 C   0  0  0  0  0  0  0  0  0  0  0  0
   -7.9432  -25.8084   29.9803 O   0  0  0  0  0  0  0  0  0  0  0  0
   -9.3856  -23.9494   28.0273 C   0  0  0  0  0  0  0  0  0  0  0  0
  -10.3290  -23.9516   26.0630 C   0  0  0  0  0  0  0  0  0  0  0  0
  -10.7590  -23.0663   24.1045 C   0  0  0  0  0  0  0  0  0  0  0  0
  -11.9520  -22.9325   22.3379 C   0  0  0  0  0  0  0  0  0  0  0  0
  -12.7320  -22.0016   22.4342 O   0  0  0  0  0  0  0  0  0  0  0  0
  -11.9556  -24.2416   20.8928 N   0  0  0  0  0  0  0  0  0  0  0  0
  -13.1316  -24.5195   19.5067 C   0  0  0  0  0  0  0  0  0  0  0  0
  -13.7970  -25.7854   19.6865 C   0  0  0  0  0  0  0  0  0  0  0  0
  -14.8139  -26.5526   18.9927 N   0  0  0  0  0  0  0  0  0  0  0  0
  -15.3750  -25.9524   17.9554 C   0  0  0  0  0  0  0  0  0  0  0  0
  -14.8530  -24.8184   17.5567 N   0  0  0  0  0  0  0  0  0  0  0  0
  -13.5721  -24.7459   18.0418 C   0  0  0  0  0  0  0  0  0  0  0  0
  -12.7909  -25.6640   17.0517 N   0  0  0  0  0  0  0  0  0  0  0  0
  -13.1044  -25.8329   15.7032 C   0  0  0  0  0  0  0  0  0  0  0  0
  -12.1844  -26.6997   15.1715 C   0  0  0  0  0  0  0  0  0  0  0  0
  -11.3873  -27.0616   16.2627 C   0  0  0  0  0  0  0  0  0  0  0  0
  -11.7715  -26.4830   17.4037 N   0  0  0  0  0  0  0  0  0  0  0  0
   -7.2372  -23.7628   34.8321 H   0  0  0  0  0  0  0  0  0  0  0  0
   -7.4235  -22.2844   34.1524 H   0  0  0  0  0  0  0  0  0  0  0  0
   -6.5411  -23.6009   33.2909 H   0  0  0  0  0  0  0  0  0  0  0  0
   -9.4750  -22.5705   32.5874 H   0  0  0  0  0  0  0  0  0  0  0  0
   -9.9565  -23.6928   33.3744 H   0  0  0  0  0  0  0  0  0  0  0  0
   -9.0147  -26.0662   32.1133 H   0  0  0  0  0  0  0  0  0  0  0  0
   -8.4564  -25.1952   33.0553 H   0  0  0  0  0  0  0  0  0  0  0  0
  -10.6550  -27.4382   32.5362 H   0  0  0  0  0  0  0  0  0  0  0  0
  -10.8667  -26.9508   34.2335 H   0  0  0  0  0  0  0  0  0  0  0  0
  -11.6138  -26.3162   32.9638 H   0  0  0  0  0  0  0  0  0  0  0  0
  -10.2418  -23.3852   28.4435 H   0  0  0  0  0  0  0  0  0  0  0  0
   -8.5495  -23.2619   27.8539 H   0  0  0  0  0  0  0  0  0  0  0  0
  -11.3719  -23.9920   26.4210 H   0  0  0  0  0  0  0  0  0  0  0  0
  -10.0937  -24.9719   25.7579 H   0  0  0  0  0  0  0  0  0  0  0  0
   -9.8768  -22.5336   23.7166 H   0  0  0  0  0  0  0  0  0  0  0  0
  -11.5944  -22.4405   24.5265 H   0  0  0  0  0  0  0  0  0  0  0  0
  -11.1649  -24.8621   20.9894 H   0  0  0  0  0  0  0  0  0  0  0  0
  -13.7274  -26.3080   20.6129 H   0  0  0  0  0  0  0  0  0  0  0  0
  -16.2636  -26.3560   17.4961 H   0  0  0  0  0  0  0  0  0  0  0  0
  -13.9211  -25.2831   15.2557 H   0  0  0  0  0  0  0  0  0  0  0  0
  -12.1047  -27.0245   14.1438 H   0  0  0  0  0  0  0  0  0  0  0  0
  -10.5372  -27.7321   16.2731 H   0  0  0  0  0  0  0  0  0  0  0  0
  1  2  1  0
  2  3  1  0
  3  4  1  0
  4  5  1  0
  3  6  1  0
  6  7  2  0
  6  8  1  0
  8  9  1  0
  9 10  1  0
 10 11  1  0
 11 12  2  0
 11 13  1  0
 13 14  1  0
 14 15  2  0
 15 16  1  0
 16 17  2  0
 17 18  1  0
 18 19  2  0
 19 20  1  0
 20 21  1  0
 21 22  2  0
 22 23  1  0
 23 24  2  0
 19 14  1  0
 24 20  1  0
  1 25  1  0
  1 26  1  0
  1 27  1  0
  2 28  1  0
  2 29  1  0
  4 30  1  0
  4 31  1  0
  5 32  1  0
  5 33  1  0
  5 34  1  0
  8 35  1  0
  8 36  1  0
  9 37  1  0
  9 38  1  0
 10 39  1  0
 10 40  1  0
 13 41  1  0
 15 42  1  0
 17 43  1  0
 21 44  1  0
 22 45  1  0
 23 46  1  0
M  END
>  <Energy>  (318) 
1274.9584552186823

>  <compound_id>  (318) 
5059

>  <target_id>  (318) 
1

>  <reference_id>  (318) 
112

>  <inspiration_ids>  (318) 
[54, 112]

>  <energy_score>  (318) 
1186.8283932762617

>  <distance_score>  (318) 
4.430008561816628

>  <path>  (318) 
/opt/xchem-fragalysis-2/maxwin/BulkDock/SCRATCH/511018/C5059-P112/C5059-P112.minimised.mol

>  <scratch_subdir>  (318) 
/opt/xchem-fragalysis-2/maxwin/BulkDock/SCRATCH/511018/C5059-P112

>  <fragmenstein_runtime>  (318) 
16.02308440208435

>  <fragmenstein_outcome>  (318) 
too moved

>  <fragmenstein_mode>  (318) 
expansion

>  <fragmenstein_error>  (318) 


$$$$
C5060-P54
     RDKit          3D

 42 43  0  0  0  0  0  0  0  0999 V2000
   -9.1212  -24.8298   20.7398 C   0  0  0  0  0  0  0  0  0  0  0  0
  -10.9116  -25.0836   20.9966 C   0  0  0  0  0  0  0  0  0  0  0  0
  -10.1400  -26.7439   22.1439 C   0  0  0  0  0  0  0  0  0  0  0  0
   -9.1336  -27.5786   23.7219 C   0  0  0  0  0  0  0  0  0  0  0  0
   -8.0694  -28.1508   23.5701 O   0  0  0  0  0  0  0  0  0  0  0  0
   -9.9481  -27.2305   25.0702 N   0  0  0  0  0  0  0  0  0  0  0  0
   -9.5841  -27.4204   26.4826 C   0  0  0  0  0  0  0  0  0  0  0  0
  -10.6687  -26.9055   27.4666 C   0  0  0  0  0  0  0  0  0  0  0  0
  -11.9562  -27.0840   26.8504 O   0  0  0  0  0  0  0  0  0  0  0  0
  -10.4262  -25.4866   28.0784 C   0  0  0  0  0  0  0  0  0  0  0  0
  -10.9382  -24.3645   27.3353 N   0  0  0  0  0  0  0  0  0  0  0  0
  -12.2885  -24.2232   27.1600 C   0  0  0  0  0  0  0  0  0  0  0  0
  -12.6400  -23.5244   26.0827 N   0  0  0  0  0  0  0  0  0  0  0  0
  -13.9482  -23.4721   25.7845 C   0  0  0  0  0  0  0  0  0  0  0  0
  -14.9126  -24.1197   26.5137 C   0  0  0  0  0  0  0  0  0  0  0  0
  -14.4575  -24.8002   27.6147 C   0  0  0  0  0  0  0  0  0  0  0  0
  -13.1549  -24.8840   27.9492 N   0  0  0  0  0  0  0  0  0  0  0  0
  -12.5324  -25.3598   19.9581 N   0  0  0  0  0  0  0  0  0  0  0  0
  -12.7944  -26.6711   19.0151 C   0  0  0  0  0  0  0  0  0  0  0  0
  -13.7243  -26.4059   18.0684 C   0  0  0  0  0  0  0  0  0  0  0  0
  -13.9350  -25.0570   18.2552 C   0  0  0  0  0  0  0  0  0  0  0  0
  -13.3333  -24.4706   19.3123 N   0  0  0  0  0  0  0  0  0  0  0  0
   -9.7286  -24.1544   20.1713 H   0  0  0  0  0  0  0  0  0  0  0  0
   -9.1200  -25.7134   21.1556 H   0  0  0  0  0  0  0  0  0  0  0  0
   -8.2897  -24.3762   21.3624 H   0  0  0  0  0  0  0  0  0  0  0  0
  -11.3470  -24.0575   21.0873 H   0  0  0  0  0  0  0  0  0  0  0  0
  -10.1460  -27.5537   21.3983 H   0  0  0  0  0  0  0  0  0  0  0  0
  -10.7293  -27.0831   22.9770 H   0  0  0  0  0  0  0  0  0  0  0  0
  -10.8535  -26.8167   24.8290 H   0  0  0  0  0  0  0  0  0  0  0  0
   -9.4397  -28.4878   26.6394 H   0  0  0  0  0  0  0  0  0  0  0  0
   -8.6230  -26.9539   26.7028 H   0  0  0  0  0  0  0  0  0  0  0  0
  -10.6492  -27.5989   28.3170 H   0  0  0  0  0  0  0  0  0  0  0  0
  -12.5886  -26.6181   27.4387 H   0  0  0  0  0  0  0  0  0  0  0  0
  -10.8592  -25.4676   29.0874 H   0  0  0  0  0  0  0  0  0  0  0  0
   -9.3537  -25.3157   28.2065 H   0  0  0  0  0  0  0  0  0  0  0  0
  -10.4481  -24.0408   26.5135 H   0  0  0  0  0  0  0  0  0  0  0  0
  -14.1972  -22.8557   24.9259 H   0  0  0  0  0  0  0  0  0  0  0  0
  -15.9654  -24.0508   26.2783 H   0  0  0  0  0  0  0  0  0  0  0  0
  -15.1498  -25.3085   28.2805 H   0  0  0  0  0  0  0  0  0  0  0  0
  -12.1409  -27.5253   19.1228 H   0  0  0  0  0  0  0  0  0  0  0  0
  -14.0777  -27.0466   17.2759 H   0  0  0  0  0  0  0  0  0  0  0  0
  -14.5318  -24.4582   17.5974 H   0  0  0  0  0  0  0  0  0  0  0  0
  1  2  1  0
  2  3  1  0
  3  4  1  0
  4  5  2  0
  4  6  1  0
  6  7  1  0
  7  8  1  0
  8  9  1  0
  8 10  1  0
 10 11  1  0
 11 12  1  0
 12 13  2  0
 13 14  1  0
 14 15  2  0
 15 16  1  0
 16 17  2  0
  2 18  1  0
 18 19  1  0
 19 20  2  0
 20 21  1  0
 21 22  2  0
 17 12  1  0
 22 18  1  0
  1 23  1  0
  1 24  1  0
  1 25  1  0
  2 26  1  0
  3 27  1  0
  3 28  1  0
  6 29  1  0
  7 30  1  0
  7 31  1  0
  8 32  1  0
  9 33  1  0
 10 34  1  0
 10 35  1  0
 11 36  1  0
 14 37  1  0
 15 38  1  0
 16 39  1  0
 19 40  1  0
 20 41  1  0
 21 42  1  0
M  END
>  <Energy>  (319) 
452.63105714939798

>  <compound_id>  (319) 
5060

>  <target_id>  (319) 
1

>  <reference_id>  (319) 
54

>  <inspiration_ids>  (319) 
[54, 112]

>  <energy_score>  (319) 
480.79397192109377

>  <distance_score>  (319) 
5.818376588410977

>  <path>  (319) 
/opt/xchem-fragalysis-2/maxwin/BulkDock/SCRATCH/511018/C5060-P54/C5060-P54.minimised.mol

>  <scratch_subdir>  (319) 
/opt/xchem-fragalysis-2/maxwin/BulkDock/SCRATCH/511018/C5060-P54

>  <fragmenstein_runtime>  (319) 
16.32679772377014

>  <fragmenstein_outcome>  (319) 
too moved

>  <fragmenstein_mode>  (319) 
expansion

>  <fragmenstein_error>  (319) 


$$$$
C5060-P112
     RDKit          3D

 42 43  0  0  0  0  0  0  0  0999 V2000
  -12.1056  -21.1823   25.0166 C   0  0  0  0  0  0  0  0  0  0  0  0
  -11.7261  -22.6538   24.9222 C   0  0  0  0  0  0  0  0  0  0  0  0
  -10.7441  -23.4626   26.4760 C   0  0  0  0  0  0  0  0  0  0  0  0
  -10.4561  -24.1906   28.2828 C   0  0  0  0  0  0  0  0  0  0  0  0
  -10.2507  -25.3885   28.2167 O   0  0  0  0  0  0  0  0  0  0  0  0
  -10.6303  -23.2217   29.7453 N   0  0  0  0  0  0  0  0  0  0  0  0
  -10.6886  -23.7643   31.7107 C   0  0  0  0  0  0  0  0  0  0  0  0
  -11.4440  -22.5765   33.0598 C   0  0  0  0  0  0  0  0  0  0  0  0
  -11.7606  -22.0876   35.3165 O   0  0  0  0  0  0  0  0  0  0  0  0
  -12.1107  -21.7552   31.2944 C   0  0  0  0  0  0  0  0  0  0  0  0
  -12.1989  -21.7525   29.4608 N   0  0  0  0  0  0  0  0  0  0  0  0
  -12.4118  -22.5910   28.1851 C   0  0  0  0  0  0  0  0  0  0  0  0
  -12.9986  -22.2776   27.1006 N   0  0  0  0  0  0  0  0  0  0  0  0
  -13.7055  -23.2363   26.0779 C   0  0  0  0  0  0  0  0  0  0  0  0
  -13.5293  -24.5572   25.8477 C   0  0  0  0  0  0  0  0  0  0  0  0
  -12.7338  -24.8542   26.8402 C   0  0  0  0  0  0  0  0  0  0  0  0
  -12.4103  -23.8861   27.9330 N   0  0  0  0  0  0  0  0  0  0  0  0
  -11.3665  -22.3631   23.4403 N   0  0  0  0  0  0  0  0  0  0  0  0
  -10.2943  -21.8225   22.8130 C   0  0  0  0  0  0  0  0  0  0  0  0
  -10.6175  -21.6769   21.4893 C   0  0  0  0  0  0  0  0  0  0  0  0
  -11.8865  -22.1612   21.4035 C   0  0  0  0  0  0  0  0  0  0  0  0
  -12.4423  -22.3451   22.5911 N   0  0  0  0  0  0  0  0  0  0  0  0
  -11.4810  -20.5074   24.4443 H   0  0  0  0  0  0  0  0  0  0  0  0
  -12.0096  -20.9053   26.0322 H   0  0  0  0  0  0  0  0  0  0  0  0
  -13.0803  -20.9980   24.5657 H   0  0  0  0  0  0  0  0  0  0  0  0
  -12.5949  -23.1496   24.6028 H   0  0  0  0  0  0  0  0  0  0  0  0
   -9.9872  -24.0733   25.9792 H   0  0  0  0  0  0  0  0  0  0  0  0
  -10.6954  -22.5188   27.0031 H   0  0  0  0  0  0  0  0  0  0  0  0
  -10.8771  -22.2688   29.4930 H   0  0  0  0  0  0  0  0  0  0  0  0
  -11.1569  -24.5855   32.0888 H   0  0  0  0  0  0  0  0  0  0  0  0
   -9.6824  -24.0974   32.0390 H   0  0  0  0  0  0  0  0  0  0  0  0
  -10.3616  -22.2463   32.7701 H   0  0  0  0  0  0  0  0  0  0  0  0
  -11.6488  -22.8926   35.8991 H   0  0  0  0  0  0  0  0  0  0  0  0
  -12.9412  -21.1567   31.5236 H   0  0  0  0  0  0  0  0  0  0  0  0
  -11.2649  -21.0703   31.1683 H   0  0  0  0  0  0  0  0  0  0  0  0
  -12.5881  -20.8611   29.1577 H   0  0  0  0  0  0  0  0  0  0  0  0
  -14.4055  -22.7332   25.3954 H   0  0  0  0  0  0  0  0  0  0  0  0
  -13.9666  -25.1603   25.0831 H   0  0  0  0  0  0  0  0  0  0  0  0
  -12.3205  -25.8522   26.9786 H   0  0  0  0  0  0  0  0  0  0  0  0
   -9.3063  -21.9466   23.1907 H   0  0  0  0  0  0  0  0  0  0  0  0
   -9.9168  -21.5033   20.6958 H   0  0  0  0  0  0  0  0  0  0  0  0
  -12.4369  -22.4020   20.5203 H   0  0  0  0  0  0  0  0  0  0  0  0
  1  2  1  0
  2  3  1  0
  3  4  1  0
  4  5  2  0
  4  6  1  0
  6  7  1  0
  7  8  1  0
  8  9  1  0
  8 10  1  0
 10 11  1  0
 11 12  1  0
 12 13  2  0
 13 14  1  0
 14 15  2  0
 15 16  1  0
 16 17  2  0
  2 18  1  0
 18 19  1  0
 19 20  2  0
 20 21  1  0
 21 22  2  0
 17 12  1  0
 22 18  1  0
  1 23  1  0
  1 24  1  0
  1 25  1  0
  2 26  1  0
  3 27  1  0
  3 28  1  0
  6 29  1  0
  7 30  1  0
  7 31  1  0
  8 32  1  0
  9 33  1  0
 10 34  1  0
 10 35  1  0
 11 36  1  0
 14 37  1  0
 15 38  1  0
 16 39  1  0
 19 40  1  0
 20 41  1  0
 21 42  1  0
M  END
>  <Energy>  (320) 
1264.1896467963454

>  <compound_id>  (320) 
5060

>  <target_id>  (320) 
1

>  <reference_id>  (320) 
112

>  <inspiration_ids>  (320) 
[54, 112]

>  <energy_score>  (320) 
1292.3525615680362

>  <distance_score>  (320) 
5.655145504589336

>  <path>  (320) 
/opt/xchem-fragalysis-2/maxwin/BulkDock/SCRATCH/511018/C5060-P112/C5060-P112.minimised.mol

>  <scratch_subdir>  (320) 
/opt/xchem-fragalysis-2/maxwin/BulkDock/SCRATCH/511018/C5060-P112

>  <fragmenstein_runtime>  (320) 
16.681499481201172

>  <fragmenstein_outcome>  (320) 
too moved

>  <fragmenstein_mode>  (320) 
expansion

>  <fragmenstein_error>  (320) 


$$$$
C5061-P54
     RDKit          3D

 42 43  0  0  0  0  0  0  0  0999 V2000
  -10.4107  -21.4852   23.1861 O   0  0  0  0  0  0  0  0  0  0  0  0
   -9.8752  -22.4774   23.6098 C   0  0  0  0  0  0  0  0  0  0  0  0
   -8.5084  -23.1879   22.5730 C   0  0  0  0  0  0  0  0  0  0  0  0
   -8.8550  -24.7502   21.0596 C   0  0  0  0  0  0  0  0  0  0  0  0
  -10.8082  -24.9268   20.3297 C   0  0  0  0  0  0  0  0  0  0  0  0
  -11.3649  -26.3623   19.0014 N   0  0  0  0  0  0  0  0  0  0  0  0
  -12.7995  -26.6262   18.7174 C   0  0  0  0  0  0  0  0  0  0  0  0
  -12.8854  -27.4588   17.6371 C   0  0  0  0  0  0  0  0  0  0  0  0
  -11.5606  -27.7230   17.2908 C   0  0  0  0  0  0  0  0  0  0  0  0
  -10.6665  -27.1400   18.0833 N   0  0  0  0  0  0  0  0  0  0  0  0
  -10.1128  -23.2354   24.8321 N   0  0  0  0  0  0  0  0  0  0  0  0
  -11.0152  -22.9732   25.9808 C   0  0  0  0  0  0  0  0  0  0  0  0
  -10.2713  -23.0542   27.3404 C   0  0  0  0  0  0  0  0  0  0  0  0
   -9.9232  -24.4378   27.5474 O   0  0  0  0  0  0  0  0  0  0  0  0
  -11.0364  -22.3924   28.5175 C   0  0  0  0  0  0  0  0  0  0  0  0
  -11.2318  -23.2631   29.6650 N   0  0  0  0  0  0  0  0  0  0  0  0
  -12.0601  -24.3419   29.4355 C   0  0  0  0  0  0  0  0  0  0  0  0
  -13.1134  -24.2063   28.6161 N   0  0  0  0  0  0  0  0  0  0  0  0
  -13.8482  -25.3033   28.3764 C   0  0  0  0  0  0  0  0  0  0  0  0
  -13.5561  -26.5323   28.9093 C   0  0  0  0  0  0  0  0  0  0  0  0
  -12.4589  -26.5707   29.7342 C   0  0  0  0  0  0  0  0  0  0  0  0
  -11.7066  -25.4931   30.0217 N   0  0  0  0  0  0  0  0  0  0  0  0
   -8.8933  -22.2699   21.9299 H   0  0  0  0  0  0  0  0  0  0  0  0
   -7.6239  -22.9094   23.2245 H   0  0  0  0  0  0  0  0  0  0  0  0
   -9.2264  -25.6827   21.4465 H   0  0  0  0  0  0  0  0  0  0  0  0
   -8.0208  -24.8161   20.3658 H   0  0  0  0  0  0  0  0  0  0  0  0
  -11.8658  -24.4466   20.4433 H   0  0  0  0  0  0  0  0  0  0  0  0
  -11.1678  -25.1409   21.2447 H   0  0  0  0  0  0  0  0  0  0  0  0
  -13.5087  -26.0898   19.3161 H   0  0  0  0  0  0  0  0  0  0  0  0
  -13.7845  -27.8045   17.1502 H   0  0  0  0  0  0  0  0  0  0  0  0
  -11.1949  -28.3365   16.4777 H   0  0  0  0  0  0  0  0  0  0  0  0
   -9.5378  -24.0567   24.8244 H   0  0  0  0  0  0  0  0  0  0  0  0
  -11.7853  -23.7495   25.9573 H   0  0  0  0  0  0  0  0  0  0  0  0
  -11.5103  -22.0130   25.8303 H   0  0  0  0  0  0  0  0  0  0  0  0
   -9.3206  -22.5306   27.2632 H   0  0  0  0  0  0  0  0  0  0  0  0
   -9.7051  -24.5366   28.4914 H   0  0  0  0  0  0  0  0  0  0  0  0
  -10.4529  -21.5271   28.8556 H   0  0  0  0  0  0  0  0  0  0  0  0
  -11.9820  -21.9561   28.1791 H   0  0  0  0  0  0  0  0  0  0  0  0
  -10.4213  -23.5438   30.1998 H   0  0  0  0  0  0  0  0  0  0  0  0
  -14.7072  -25.1547   27.7285 H   0  0  0  0  0  0  0  0  0  0  0  0
  -14.1572  -27.4071   28.7066 H   0  0  0  0  0  0  0  0  0  0  0  0
  -12.1448  -27.4952   30.2103 H   0  0  0  0  0  0  0  0  0  0  0  0
  1  2  2  0
  2  3  1  0
  3  4  1  0
  4  5  1  0
  5  6  1  0
  6  7  1  0
  7  8  2  0
  8  9  1  0
  9 10  2  0
  2 11  1  0
 11 12  1  0
 12 13  1  0
 13 14  1  0
 13 15  1  0
 15 16  1  0
 16 17  1  0
 17 18  2  0
 18 19  1  0
 19 20  2  0
 20 21  1  0
 21 22  2  0
 10  6  1  0
 22 17  1  0
  3 23  1  0
  3 24  1  0
  4 25  1  0
  4 26  1  0
  5 27  1  0
  5 28  1  0
  7 29  1  0
  8 30  1  0
  9 31  1  0
 11 32  1  0
 12 33  1  0
 12 34  1  0
 13 35  1  0
 14 36  1  0
 15 37  1  0
 15 38  1  0
 16 39  1  0
 19 40  1  0
 20 41  1  0
 21 42  1  0
M  END
>  <Energy>  (321) 
375.33671552389092

>  <compound_id>  (321) 
5061

>  <target_id>  (321) 
1

>  <reference_id>  (321) 
54

>  <inspiration_ids>  (321) 
[54, 112]

>  <energy_score>  (321) 
378.6412035868302

>  <distance_score>  (321) 
5.101890513817386

>  <path>  (321) 
/opt/xchem-fragalysis-2/maxwin/BulkDock/SCRATCH/511018/C5061-P54/C5061-P54.minimised.mol

>  <scratch_subdir>  (321) 
/opt/xchem-fragalysis-2/maxwin/BulkDock/SCRATCH/511018/C5061-P54

>  <fragmenstein_runtime>  (321) 
16.796748876571655

>  <fragmenstein_outcome>  (321) 
too moved

>  <fragmenstein_mode>  (321) 
expansion

>  <fragmenstein_error>  (321) 


$$$$
C5061-P112
     RDKit          3D

 42 43  0  0  0  0  0  0  0  0999 V2000
  -12.7141  -26.4555   26.2196 O   0  0  0  0  0  0  0  0  0  0  0  0
  -11.1799  -26.3079   25.7285 C   0  0  0  0  0  0  0  0  0  0  0  0
  -10.9006  -27.2786   24.6544 C   0  0  0  0  0  0  0  0  0  0  0  0
  -10.3735  -27.2356   22.6592 C   0  0  0  0  0  0  0  0  0  0  0  0
  -10.4262  -26.0202   21.0283 C   0  0  0  0  0  0  0  0  0  0  0  0
  -11.7823  -25.6854   19.5716 N   0  0  0  0  0  0  0  0  0  0  0  0
  -12.2209  -26.7849   18.6129 C   0  0  0  0  0  0  0  0  0  0  0  0
  -13.2586  -26.3535   17.8521 C   0  0  0  0  0  0  0  0  0  0  0  0
  -13.6958  -25.2673   18.5894 C   0  0  0  0  0  0  0  0  0  0  0  0
  -12.9894  -24.9833   19.7237 N   0  0  0  0  0  0  0  0  0  0  0  0
  -10.7829  -25.5878   26.4160 N   0  0  0  0  0  0  0  0  0  0  0  0
  -11.1483  -24.6909   27.5139 C   0  0  0  0  0  0  0  0  0  0  0  0
  -11.1460  -23.2100   27.6204 C   0  0  0  0  0  0  0  0  0  0  0  0
  -11.5408  -22.6031   28.8362 O   0  0  0  0  0  0  0  0  0  0  0  0
  -12.0816  -22.8759   26.5071 C   0  0  0  0  0  0  0  0  0  0  0  0
  -12.0306  -21.5133   26.1628 N   0  0  0  0  0  0  0  0  0  0  0  0
  -12.2605  -21.4295   24.7848 C   0  0  0  0  0  0  0  0  0  0  0  0
  -11.2885  -20.9283   24.0188 N   0  0  0  0  0  0  0  0  0  0  0  0
  -11.1550  -21.3973   22.7851 C   0  0  0  0  0  0  0  0  0  0  0  0
  -12.1101  -22.1303   22.2097 C   0  0  0  0  0  0  0  0  0  0  0  0
  -13.1410  -22.4434   23.0483 C   0  0  0  0  0  0  0  0  0  0  0  0
  -13.2279  -22.1787   24.3166 N   0  0  0  0  0  0  0  0  0  0  0  0
  -11.7428  -27.9186   24.9527 H   0  0  0  0  0  0  0  0  0  0  0  0
  -10.0423  -27.7537   25.1156 H   0  0  0  0  0  0  0  0  0  0  0  0
   -9.2820  -27.3098   23.0349 H   0  0  0  0  0  0  0  0  0  0  0  0
  -10.6460  -26.3331   22.5130 H   0  0  0  0  0  0  0  0  0  0  0  0
   -9.6763  -25.2384   20.8949 H   0  0  0  0  0  0  0  0  0  0  0  0
  -10.2788  -26.9102   20.4346 H   0  0  0  0  0  0  0  0  0  0  0  0
  -11.9494  -27.8101   18.7511 H   0  0  0  0  0  0  0  0  0  0  0  0
  -13.7529  -26.8464   17.0288 H   0  0  0  0  0  0  0  0  0  0  0  0
  -14.5157  -24.6432   18.2739 H   0  0  0  0  0  0  0  0  0  0  0  0
  -10.0563  -25.0507   26.8383 H   0  0  0  0  0  0  0  0  0  0  0  0
  -12.2096  -24.8515   27.4370 H   0  0  0  0  0  0  0  0  0  0  0  0
  -10.6822  -25.1184   28.3929 H   0  0  0  0  0  0  0  0  0  0  0  0
  -10.1026  -23.0248   27.5943 H   0  0  0  0  0  0  0  0  0  0  0  0
  -12.5256  -22.5962   28.8610 H   0  0  0  0  0  0  0  0  0  0  0  0
  -13.1064  -23.1633   26.7113 H   0  0  0  0  0  0  0  0  0  0  0  0
  -11.7695  -23.4830   25.6620 H   0  0  0  0  0  0  0  0  0  0  0  0
  -11.1885  -21.0621   26.4507 H   0  0  0  0  0  0  0  0  0  0  0  0
  -10.2196  -21.2410   22.2796 H   0  0  0  0  0  0  0  0  0  0  0  0
  -12.0481  -22.4723   21.1885 H   0  0  0  0  0  0  0  0  0  0  0  0
  -13.9716  -23.0258   22.7603 H   0  0  0  0  0  0  0  0  0  0  0  0
  1  2  2  0
  2  3  1  0
  3  4  1  0
  4  5  1  0
  5  6  1  0
  6  7  1  0
  7  8  2  0
  8  9  1  0
  9 10  2  0
  2 11  1  0
 11 12  1  0
 12 13  1  0
 13 14  1  0
 13 15  1  0
 15 16  1  0
 16 17  1  0
 17 18  2  0
 18 19  1  0
 19 20  2  0
 20 21  1  0
 21 22  2  0
 10  6  1  0
 22 17  1  0
  3 23  1  0
  3 24  1  0
  4 25  1  0
  4 26  1  0
  5 27  1  0
  5 28  1  0
  7 29  1  0
  8 30  1  0
  9 31  1  0
 11 32  1  0
 12 33  1  0
 12 34  1  0
 13 35  1  0
 14 36  1  0
 15 37  1  0
 15 38  1  0
 16 39  1  0
 19 40  1  0
 20 41  1  0
 21 42  1  0
M  END
>  <Energy>  (322) 
597.79049638351876

>  <compound_id>  (322) 
5061

>  <target_id>  (322) 
1

>  <reference_id>  (322) 
112

>  <inspiration_ids>  (322) 
[54, 112]

>  <energy_score>  (322) 
601.0949844464524

>  <distance_score>  (322) 
6.050036332047037

>  <path>  (322) 
/opt/xchem-fragalysis-2/maxwin/BulkDock/SCRATCH/511018/C5061-P112/C5061-P112.minimised.mol

>  <scratch_subdir>  (322) 
/opt/xchem-fragalysis-2/maxwin/BulkDock/SCRATCH/511018/C5061-P112

>  <fragmenstein_runtime>  (322) 
17.82761573791504

>  <fragmenstein_outcome>  (322) 
too moved

>  <fragmenstein_mode>  (322) 
expansion

>  <fragmenstein_error>  (322) 


$$$$
C5062-P54
     RDKit          3D

 46 47  0  0  0  0  0  0  0  0999 V2000
  -13.9874  -22.7575   24.9536 C   0  0  0  0  0  0  0  0  0  0  0  0
  -14.8255  -23.8520   25.3268 O   0  0  0  0  0  0  0  0  0  0  0  0
  -14.6544  -24.2700   26.6259 C   0  0  0  0  0  0  0  0  0  0  0  0
  -15.7091  -24.9154   27.2130 C   0  0  0  0  0  0  0  0  0  0  0  0
  -15.4841  -25.3521   28.4943 C   0  0  0  0  0  0  0  0  0  0  0  0
  -14.3086  -25.2046   29.1347 N   0  0  0  0  0  0  0  0  0  0  0  0
  -13.3349  -24.5903   28.4572 C   0  0  0  0  0  0  0  0  0  0  0  0
  -12.0752  -24.6322   29.0412 N   0  0  0  0  0  0  0  0  0  0  0  0
  -11.1897  -25.4130   28.1768 C   0  0  0  0  0  0  0  0  0  0  0  0
  -11.6098  -26.9141   28.0620 C   0  0  0  0  0  0  0  0  0  0  0  0
  -10.4509  -27.7601   27.9655 O   0  0  0  0  0  0  0  0  0  0  0  0
  -12.5810  -27.3247   26.9046 C   0  0  0  0  0  0  0  0  0  0  0  0
  -12.0336  -27.2915   25.5535 N   0  0  0  0  0  0  0  0  0  0  0  0
  -10.7864  -26.8413   25.0687 C   0  0  0  0  0  0  0  0  0  0  0  0
   -9.8819  -26.2948   25.6326 O   0  0  0  0  0  0  0  0  0  0  0  0
  -10.3447  -27.1140   23.1819 C   0  0  0  0  0  0  0  0  0  0  0  0
  -10.0129  -26.6115   21.2234 C   0  0  0  0  0  0  0  0  0  0  0  0
  -11.1605  -24.8999   20.7902 C   0  0  0  0  0  0  0  0  0  0  0  0
  -10.7311  -27.3930   19.4142 N   0  0  0  0  0  0  0  0  0  0  0  0
  -11.3823  -28.7586   18.9784 C   0  0  0  0  0  0  0  0  0  0  0  0
  -11.8803  -28.7205   17.7074 C   0  0  0  0  0  0  0  0  0  0  0  0
  -11.5872  -27.4533   17.2928 C   0  0  0  0  0  0  0  0  0  0  0  0
  -10.9939  -26.7235   18.2139 N   0  0  0  0  0  0  0  0  0  0  0  0
  -13.4576  -24.1342   27.2098 N   0  0  0  0  0  0  0  0  0  0  0  0
  -13.6297  -22.9287   23.9365 H   0  0  0  0  0  0  0  0  0  0  0  0
  -14.6073  -21.8586   24.9325 H   0  0  0  0  0  0  0  0  0  0  0  0
  -13.1035  -22.5996   25.5767 H   0  0  0  0  0  0  0  0  0  0  0  0
  -16.6652  -25.0293   26.7242 H   0  0  0  0  0  0  0  0  0  0  0  0
  -16.2723  -25.8327   29.0669 H   0  0  0  0  0  0  0  0  0  0  0  0
  -12.2012  -25.0593   29.9514 H   0  0  0  0  0  0  0  0  0  0  0  0
  -11.0901  -24.9398   27.1945 H   0  0  0  0  0  0  0  0  0  0  0  0
  -10.1905  -25.3532   28.6189 H   0  0  0  0  0  0  0  0  0  0  0  0
  -12.0940  -27.2073   29.0016 H   0  0  0  0  0  0  0  0  0  0  0  0
   -9.8729  -27.3683   27.2765 H   0  0  0  0  0  0  0  0  0  0  0  0
  -12.8562  -28.3748   27.0618 H   0  0  0  0  0  0  0  0  0  0  0  0
  -13.5104  -26.7667   26.8932 H   0  0  0  0  0  0  0  0  0  0  0  0
  -12.5093  -27.7787   24.8214 H   0  0  0  0  0  0  0  0  0  0  0  0
   -9.2957  -27.5183   23.5573 H   0  0  0  0  0  0  0  0  0  0  0  0
  -11.2338  -27.5721   23.3854 H   0  0  0  0  0  0  0  0  0  0  0  0
  -10.2407  -27.6904   21.2816 H   0  0  0  0  0  0  0  0  0  0  0  0
  -12.2836  -24.9810   21.0250 H   0  0  0  0  0  0  0  0  0  0  0  0
  -11.8068  -25.0692   19.9593 H   0  0  0  0  0  0  0  0  0  0  0  0
  -11.1585  -23.8202   21.0106 H   0  0  0  0  0  0  0  0  0  0  0  0
  -11.2362  -29.6453   19.5826 H   0  0  0  0  0  0  0  0  0  0  0  0
  -12.3237  -29.5325   17.1518 H   0  0  0  0  0  0  0  0  0  0  0  0
  -11.7770  -27.0009   16.3287 H   0  0  0  0  0  0  0  0  0  0  0  0
  1  2  1  0
  2  3  1  0
  3  4  2  0
  4  5  1  0
  5  6  2  0
  6  7  1  0
  7  8  1  0
  8  9  1  0
  9 10  1  0
 10 11  1  0
 10 12  1  0
 12 13  1  0
 13 14  1  0
 14 15  2  0
 14 16  1  0
 16 17  1  0
 17 18  1  0
 17 19  1  0
 19 20  1  0
 20 21  2  0
 21 22  1  0
 22 23  2  0
  7 24  2  0
 24  3  1  0
 23 19  1  0
  1 25  1  0
  1 26  1  0
  1 27  1  0
  4 28  1  0
  5 29  1  0
  8 30  1  0
  9 31  1  0
  9 32  1  0
 10 33  1  0
 11 34  1  0
 12 35  1  0
 12 36  1  0
 13 37  1  0
 16 38  1  0
 16 39  1  0
 17 40  1  0
 18 41  1  0
 18 42  1  0
 18 43  1  0
 20 44  1  0
 21 45  1  0
 22 46  1  0
M  END
>  <Energy>  (323) 
439.65452243436914

>  <compound_id>  (323) 
5062

>  <target_id>  (323) 
1

>  <reference_id>  (323) 
54

>  <inspiration_ids>  (323) 
[54, 112]

>  <energy_score>  (323) 
483.21948838427943

>  <distance_score>  (323) 
5.578462257569024

>  <path>  (323) 
/opt/xchem-fragalysis-2/maxwin/BulkDock/SCRATCH/511018/C5062-P54/C5062-P54.minimised.mol

>  <scratch_subdir>  (323) 
/opt/xchem-fragalysis-2/maxwin/BulkDock/SCRATCH/511018/C5062-P54

>  <fragmenstein_runtime>  (323) 
24.944302797317505

>  <fragmenstein_outcome>  (323) 
too moved

>  <fragmenstein_mode>  (323) 
expansion

>  <fragmenstein_error>  (323) 


$$$$
C5062-P112
     RDKit          3D

 46 47  0  0  0  0  0  0  0  0999 V2000
  -11.4840  -21.4683   22.8222 C   0  0  0  0  0  0  0  0  0  0  0  0
  -12.8513  -21.8567   22.8112 O   0  0  0  0  0  0  0  0  0  0  0  0
  -13.3246  -22.3944   23.9496 C   0  0  0  0  0  0  0  0  0  0  0  0
  -14.6363  -22.7632   24.1010 C   0  0  0  0  0  0  0  0  0  0  0  0
  -14.8207  -23.9323   24.7893 C   0  0  0  0  0  0  0  0  0  0  0  0
  -13.8203  -24.5011   25.4533 N   0  0  0  0  0  0  0  0  0  0  0  0
  -12.8477  -23.6284   25.6934 C   0  0  0  0  0  0  0  0  0  0  0  0
  -12.9944  -22.9544   26.8309 N   0  0  0  0  0  0  0  0  0  0  0  0
  -11.9141  -22.2105   27.3157 C   0  0  0  0  0  0  0  0  0  0  0  0
  -11.1725  -23.1847   28.1009 C   0  0  0  0  0  0  0  0  0  0  0  0
  -10.7509  -22.4062   29.1879 O   0  0  0  0  0  0  0  0  0  0  0  0
  -10.2489  -24.2643   27.5117 C   0  0  0  0  0  0  0  0  0  0  0  0
  -10.5187  -25.1473   26.3445 N   0  0  0  0  0  0  0  0  0  0  0  0
  -10.8179  -26.6113   26.2733 C   0  0  0  0  0  0  0  0  0  0  0  0
  -10.9942  -27.4201   27.1527 O   0  0  0  0  0  0  0  0  0  0  0  0
  -10.9083  -27.3111   24.6734 C   0  0  0  0  0  0  0  0  0  0  0  0
  -10.4244  -27.4681   22.6099 C   0  0  0  0  0  0  0  0  0  0  0  0
  -10.2667  -26.1264   21.2704 C   0  0  0  0  0  0  0  0  0  0  0  0
  -10.2062  -29.3402   21.7750 N   0  0  0  0  0  0  0  0  0  0  0  0
  -10.1535  -30.8700   22.3522 C   0  0  0  0  0  0  0  0  0  0  0  0
  -10.5126  -31.9083   21.5509 C   0  0  0  0  0  0  0  0  0  0  0  0
  -11.0526  -31.3585   20.4405 C   0  0  0  0  0  0  0  0  0  0  0  0
  -11.0702  -30.0433   20.4150 N   0  0  0  0  0  0  0  0  0  0  0  0
  -12.4083  -22.7830   24.7940 N   0  0  0  0  0  0  0  0  0  0  0  0
  -10.8170  -22.2593   23.1384 H   0  0  0  0  0  0  0  0  0  0  0  0
  -11.2148  -21.1879   21.8050 H   0  0  0  0  0  0  0  0  0  0  0  0
  -11.3337  -20.6385   23.5044 H   0  0  0  0  0  0  0  0  0  0  0  0
  -15.4811  -22.2651   23.6758 H   0  0  0  0  0  0  0  0  0  0  0  0
  -15.7852  -24.4245   24.8495 H   0  0  0  0  0  0  0  0  0  0  0  0
  -13.6333  -22.2409   26.4904 H   0  0  0  0  0  0  0  0  0  0  0  0
  -11.4127  -21.5840   26.6130 H   0  0  0  0  0  0  0  0  0  0  0  0
  -12.3400  -21.4698   27.9995 H   0  0  0  0  0  0  0  0  0  0  0  0
  -11.9604  -23.7589   28.5014 H   0  0  0  0  0  0  0  0  0  0  0  0
  -11.5579  -22.1372   29.6723 H   0  0  0  0  0  0  0  0  0  0  0  0
  -10.1344  -24.9655   28.3218 H   0  0  0  0  0  0  0  0  0  0  0  0
   -9.2615  -23.8412   27.3598 H   0  0  0  0  0  0  0  0  0  0  0  0
  -10.3495  -24.7976   25.4146 H   0  0  0  0  0  0  0  0  0  0  0  0
  -11.8080  -27.8858   24.9734 H   0  0  0  0  0  0  0  0  0  0  0  0
  -11.2180  -26.2638   24.7117 H   0  0  0  0  0  0  0  0  0  0  0  0
   -9.2891  -27.3792   23.0353 H   0  0  0  0  0  0  0  0  0  0  0  0
  -11.0054  -25.2752   21.0571 H   0  0  0  0  0  0  0  0  0  0  0  0
   -9.4410  -25.4436   21.0807 H   0  0  0  0  0  0  0  0  0  0  0  0
  -10.3116  -26.8497   20.4648 H   0  0  0  0  0  0  0  0  0  0  0  0
   -9.5959  -30.9890   23.2527 H   0  0  0  0  0  0  0  0  0  0  0  0
  -10.3942  -32.9566   21.7836 H   0  0  0  0  0  0  0  0  0  0  0  0
  -11.4882  -31.8759   19.5957 H   0  0  0  0  0  0  0  0  0  0  0  0
  1  2  1  0
  2  3  1  0
  3  4  2  0
  4  5  1  0
  5  6  2  0
  6  7  1  0
  7  8  1  0
  8  9  1  0
  9 10  1  0
 10 11  1  0
 10 12  1  0
 12 13  1  0
 13 14  1  0
 14 15  2  0
 14 16  1  0
 16 17  1  0
 17 18  1  0
 17 19  1  0
 19 20  1  0
 20 21  2  0
 21 22  1  0
 22 23  2  0
  7 24  2  0
 24  3  1  0
 23 19  1  0
  1 25  1  0
  1 26  1  0
  1 27  1  0
  4 28  1  0
  5 29  1  0
  8 30  1  0
  9 31  1  0
  9 32  1  0
 10 33  1  0
 11 34  1  0
 12 35  1  0
 12 36  1  0
 13 37  1  0
 16 38  1  0
 16 39  1  0
 17 40  1  0
 18 41  1  0
 18 42  1  0
 18 43  1  0
 20 44  1  0
 21 45  1  0
 22 46  1  0
M  END
>  <Energy>  (324) 
477.87905297946634

>  <compound_id>  (324) 
5062

>  <target_id>  (324) 
1

>  <reference_id>  (324) 
112

>  <inspiration_ids>  (324) 
[54, 112]

>  <energy_score>  (324) 
521.4440189293721

>  <distance_score>  (324) 
6.9692024406952315

>  <path>  (324) 
/opt/xchem-fragalysis-2/maxwin/BulkDock/SCRATCH/511018/C5062-P112/C5062-P112.minimised.mol

>  <scratch_subdir>  (324) 
/opt/xchem-fragalysis-2/maxwin/BulkDock/SCRATCH/511018/C5062-P112

>  <fragmenstein_runtime>  (324) 
17.081457138061523

>  <fragmenstein_outcome>  (324) 
too moved

>  <fragmenstein_mode>  (324) 
expansion

>  <fragmenstein_error>  (324) 


$$$$
C5063-P54
     RDKit          3D

 42 43  0  0  0  0  0  0  0  0999 V2000
  -12.1333  -27.3253   25.0914 O   0  0  0  0  0  0  0  0  0  0  0  0
  -10.9765  -27.0110   24.9381 C   0  0  0  0  0  0  0  0  0  0  0  0
  -10.3433  -27.1765   23.0789 C   0  0  0  0  0  0  0  0  0  0  0  0
  -10.5473  -28.1182   21.2805 C   0  0  0  0  0  0  0  0  0  0  0  0
  -11.3949  -28.0359   19.4034 C   0  0  0  0  0  0  0  0  0  0  0  0
  -11.4860  -29.1602   18.4594 N   0  0  0  0  0  0  0  0  0  0  0  0
  -11.0806  -29.0967   17.1432 C   0  0  0  0  0  0  0  0  0  0  0  0
  -11.6221  -30.1868   16.5135 C   0  0  0  0  0  0  0  0  0  0  0  0
  -12.3897  -30.8123   17.5091 C   0  0  0  0  0  0  0  0  0  0  0  0
  -12.3424  -30.1747   18.6834 N   0  0  0  0  0  0  0  0  0  0  0  0
  -10.0150  -26.4422   25.8838 N   0  0  0  0  0  0  0  0  0  0  0  0
  -10.1764  -25.9945   27.2559 C   0  0  0  0  0  0  0  0  0  0  0  0
  -10.8502  -24.6126   27.4416 C   0  0  0  0  0  0  0  0  0  0  0  0
  -10.1780  -23.6183   26.6609 O   0  0  0  0  0  0  0  0  0  0  0  0
  -10.8668  -24.1467   28.9338 C   0  0  0  0  0  0  0  0  0  0  0  0
  -11.6158  -25.0139   29.8486 N   0  0  0  0  0  0  0  0  0  0  0  0
  -12.8284  -25.3815   29.2746 C   0  0  0  0  0  0  0  0  0  0  0  0
  -13.6095  -24.4426   28.7174 N   0  0  0  0  0  0  0  0  0  0  0  0
  -14.5437  -24.8773   27.8451 C   0  0  0  0  0  0  0  0  0  0  0  0
  -14.7175  -26.1971   27.5227 C   0  0  0  0  0  0  0  0  0  0  0  0
  -15.7978  -26.6885   26.3019 Cl  0  0  0  0  0  0  0  0  0  0  0  0
  -13.9296  -27.0801   28.2186 C   0  0  0  0  0  0  0  0  0  0  0  0
  -12.9881  -26.6982   29.1103 N   0  0  0  0  0  0  0  0  0  0  0  0
  -10.2508  -26.4448   22.3386 H   0  0  0  0  0  0  0  0  0  0  0  0
  -11.2588  -27.5601   23.3498 H   0  0  0  0  0  0  0  0  0  0  0  0
  -10.3701  -29.2772   21.2608 H   0  0  0  0  0  0  0  0  0  0  0  0
   -9.8876  -27.3341   20.9445 H   0  0  0  0  0  0  0  0  0  0  0  0
  -10.8378  -27.2966   18.8160 H   0  0  0  0  0  0  0  0  0  0  0  0
  -12.4527  -27.6881   19.3861 H   0  0  0  0  0  0  0  0  0  0  0  0
  -10.4597  -28.2895   16.7769 H   0  0  0  0  0  0  0  0  0  0  0  0
  -11.5034  -30.4728   15.4787 H   0  0  0  0  0  0  0  0  0  0  0  0
  -12.9969  -31.7040   17.4245 H   0  0  0  0  0  0  0  0  0  0  0  0
   -9.1781  -26.2306   25.4067 H   0  0  0  0  0  0  0  0  0  0  0  0
  -10.7128  -26.7812   27.7887 H   0  0  0  0  0  0  0  0  0  0  0  0
   -9.1540  -25.9300   27.6330 H   0  0  0  0  0  0  0  0  0  0  0  0
  -11.8483  -24.6707   27.0038 H   0  0  0  0  0  0  0  0  0  0  0  0
  -10.7340  -22.8153   26.6740 H   0  0  0  0  0  0  0  0  0  0  0  0
  -11.2626  -23.1235   28.9897 H   0  0  0  0  0  0  0  0  0  0  0  0
   -9.8335  -24.0697   29.2954 H   0  0  0  0  0  0  0  0  0  0  0  0
  -11.1442  -25.8940   30.0332 H   0  0  0  0  0  0  0  0  0  0  0  0
  -15.1380  -24.1040   27.3693 H   0  0  0  0  0  0  0  0  0  0  0  0
  -14.0027  -28.1513   28.0558 H   0  0  0  0  0  0  0  0  0  0  0  0
  1  2  2  0
  2  3  1  0
  3  4  1  0
  4  5  1  0
  5  6  1  0
  6  7  1  0
  7  8  2  0
  8  9  1  0
  9 10  2  0
  2 11  1  0
 11 12  1  0
 12 13  1  0
 13 14  1  0
 13 15  1  0
 15 16  1  0
 16 17  1  0
 17 18  2  0
 18 19  1  0
 19 20  2  0
 20 21  1  0
 20 22  1  0
 22 23  2  0
 10  6  1  0
 23 17  1  0
  3 24  1  0
  3 25  1  0
  4 26  1  0
  4 27  1  0
  5 28  1  0
  5 29  1  0
  7 30  1  0
  8 31  1  0
  9 32  1  0
 11 33  1  0
 12 34  1  0
 12 35  1  0
 13 36  1  0
 14 37  1  0
 15 38  1  0
 15 39  1  0
 16 40  1  0
 19 41  1  0
 22 42  1  0
M  END
>  <Energy>  (325) 
291.17418779318217

>  <compound_id>  (325) 
5063

>  <target_id>  (325) 
1

>  <reference_id>  (325) 
54

>  <inspiration_ids>  (325) 
[54, 112]

>  <energy_score>  (325) 
280.32765122430686

>  <distance_score>  (325) 
5.6943474893466615

>  <path>  (325) 
/opt/xchem-fragalysis-2/maxwin/BulkDock/SCRATCH/511018/C5063-P54/C5063-P54.minimised.mol

>  <scratch_subdir>  (325) 
/opt/xchem-fragalysis-2/maxwin/BulkDock/SCRATCH/511018/C5063-P54

>  <fragmenstein_runtime>  (325) 
14.776209115982056

>  <fragmenstein_outcome>  (325) 
too moved

>  <fragmenstein_mode>  (325) 
expansion

>  <fragmenstein_error>  (325) 


$$$$
C5063-P112
     RDKit          3D

 42 43  0  0  0  0  0  0  0  0999 V2000
   -9.8303  -24.6074   25.2818 O   0  0  0  0  0  0  0  0  0  0  0  0
  -10.5548  -25.1208   26.0484 C   0  0  0  0  0  0  0  0  0  0  0  0
  -11.2055  -26.3993   25.6281 C   0  0  0  0  0  0  0  0  0  0  0  0
  -10.8376  -27.2402   24.0878 C   0  0  0  0  0  0  0  0  0  0  0  0
  -10.4633  -26.5710   22.0404 C   0  0  0  0  0  0  0  0  0  0  0  0
  -11.1944  -25.2021   20.7470 N   0  0  0  0  0  0  0  0  0  0  0  0
  -12.4621  -24.5027   20.4049 C   0  0  0  0  0  0  0  0  0  0  0  0
  -13.3152  -25.1477   19.4711 C   0  0  0  0  0  0  0  0  0  0  0  0
  -12.6835  -26.1876   18.8666 C   0  0  0  0  0  0  0  0  0  0  0  0
  -11.4095  -26.1030   19.2161 N   0  0  0  0  0  0  0  0  0  0  0  0
  -10.8624  -24.7957   27.3469 N   0  0  0  0  0  0  0  0  0  0  0  0
  -10.4851  -23.7106   28.1278 C   0  0  0  0  0  0  0  0  0  0  0  0
  -11.2769  -22.4502   28.0458 C   0  0  0  0  0  0  0  0  0  0  0  0
  -11.8559  -22.0865   29.3164 O   0  0  0  0  0  0  0  0  0  0  0  0
  -12.2318  -22.3007   26.8831 C   0  0  0  0  0  0  0  0  0  0  0  0
  -12.3591  -23.1958   25.7318 N   0  0  0  0  0  0  0  0  0  0  0  0
  -13.6243  -23.6917   25.4125 C   0  0  0  0  0  0  0  0  0  0  0  0
  -14.4847  -22.9012   24.7831 N   0  0  0  0  0  0  0  0  0  0  0  0
  -15.7467  -23.3499   24.6315 C   0  0  0  0  0  0  0  0  0  0  0  0
  -16.0950  -24.6672   24.7986 C   0  0  0  0  0  0  0  0  0  0  0  0
  -17.6593  -25.2538   24.5054 Cl  0  0  0  0  0  0  0  0  0  0  0  0
  -15.0733  -25.4887   25.1868 C   0  0  0  0  0  0  0  0  0  0  0  0
  -13.8676  -25.0097   25.5773 N   0  0  0  0  0  0  0  0  0  0  0  0
  -10.9358  -27.1473   26.3945 H   0  0  0  0  0  0  0  0  0  0  0  0
  -12.2765  -26.3570   25.7801 H   0  0  0  0  0  0  0  0  0  0  0  0
  -11.6539  -27.8341   24.5274 H   0  0  0  0  0  0  0  0  0  0  0  0
   -9.8846  -27.5890   24.6469 H   0  0  0  0  0  0  0  0  0  0  0  0
   -9.7375  -25.9201   21.5657 H   0  0  0  0  0  0  0  0  0  0  0  0
  -10.5100  -27.4932   21.3537 H   0  0  0  0  0  0  0  0  0  0  0  0
  -12.4792  -23.4746   20.7667 H   0  0  0  0  0  0  0  0  0  0  0  0
  -14.1663  -24.7643   18.9578 H   0  0  0  0  0  0  0  0  0  0  0  0
  -12.9801  -26.8374   18.0567 H   0  0  0  0  0  0  0  0  0  0  0  0
  -11.5969  -25.4173   27.6768 H   0  0  0  0  0  0  0  0  0  0  0  0
  -10.4415  -24.0641   29.1100 H   0  0  0  0  0  0  0  0  0  0  0  0
   -9.4514  -23.5213   27.8397 H   0  0  0  0  0  0  0  0  0  0  0  0
  -10.5618  -21.6506   27.9715 H   0  0  0  0  0  0  0  0  0  0  0  0
  -12.7472  -22.4980   29.3539 H   0  0  0  0  0  0  0  0  0  0  0  0
  -12.0093  -21.3337   26.4491 H   0  0  0  0  0  0  0  0  0  0  0  0
  -13.1712  -22.2330   27.3373 H   0  0  0  0  0  0  0  0  0  0  0  0
  -12.2603  -22.5524   24.9397 H   0  0  0  0  0  0  0  0  0  0  0  0
  -16.4659  -22.5982   24.3204 H   0  0  0  0  0  0  0  0  0  0  0  0
  -15.2146  -26.5570   25.3035 H   0  0  0  0  0  0  0  0  0  0  0  0
  1  2  2  0
  2  3  1  0
  3  4  1  0
  4  5  1  0
  5  6  1  0
  6  7  1  0
  7  8  2  0
  8  9  1  0
  9 10  2  0
  2 11  1  0
 11 12  1  0
 12 13  1  0
 13 14  1  0
 13 15  1  0
 15 16  1  0
 16 17  1  0
 17 18  2  0
 18 19  1  0
 19 20  2  0
 20 21  1  0
 20 22  1  0
 22 23  2  0
 10  6  1  0
 23 17  1  0
  3 24  1  0
  3 25  1  0
  4 26  1  0
  4 27  1  0
  5 28  1  0
  5 29  1  0
  7 30  1  0
  8 31  1  0
  9 32  1  0
 11 33  1  0
 12 34  1  0
 12 35  1  0
 13 36  1  0
 14 37  1  0
 15 38  1  0
 15 39  1  0
 16 40  1  0
 19 41  1  0
 22 42  1  0
M  END
>  <Energy>  (326) 
438.84984794525093

>  <compound_id>  (326) 
5063

>  <target_id>  (326) 
1

>  <reference_id>  (326) 
112

>  <inspiration_ids>  (326) 
[54, 112]

>  <energy_score>  (326) 
428.00331137637477

>  <distance_score>  (326) 
5.929324178019811

>  <path>  (326) 
/opt/xchem-fragalysis-2/maxwin/BulkDock/SCRATCH/511018/C5063-P112/C5063-P112.minimised.mol

>  <scratch_subdir>  (326) 
/opt/xchem-fragalysis-2/maxwin/BulkDock/SCRATCH/511018/C5063-P112

>  <fragmenstein_runtime>  (326) 
15.041325330734253

>  <fragmenstein_outcome>  (326) 
too moved

>  <fragmenstein_mode>  (326) 
expansion

>  <fragmenstein_error>  (326) 


$$$$
C5064-P54
     RDKit          3D

 42 43  0  0  0  0  0  0  0  0999 V2000
   -8.9388  -24.8894   20.8495 C   0  0  0  0  0  0  0  0  0  0  0  0
  -10.7971  -25.1731   21.0511 C   0  0  0  0  0  0  0  0  0  0  0  0
  -10.3664  -26.8330   22.4489 C   0  0  0  0  0  0  0  0  0  0  0  0
  -10.9394  -27.2887   24.3845 C   0  0  0  0  0  0  0  0  0  0  0  0
  -12.0878  -27.1847   24.7265 O   0  0  0  0  0  0  0  0  0  0  0  0
   -9.7711  -27.6075   25.1488 N   0  0  0  0  0  0  0  0  0  0  0  0
   -9.5877  -27.8084   26.5864 C   0  0  0  0  0  0  0  0  0  0  0  0
  -10.0328  -26.6370   27.4903 C   0  0  0  0  0  0  0  0  0  0  0  0
   -8.9687  -25.7011   27.6056 O   0  0  0  0  0  0  0  0  0  0  0  0
  -11.2691  -25.8551   27.1358 C   0  0  0  0  0  0  0  0  0  0  0  0
  -11.5297  -24.8425   28.1840 N   0  0  0  0  0  0  0  0  0  0  0  0
  -12.7314  -24.2787   27.7332 C   0  0  0  0  0  0  0  0  0  0  0  0
  -13.8307  -24.7625   28.3230 N   0  0  0  0  0  0  0  0  0  0  0  0
  -14.9708  -24.6567   27.6070 C   0  0  0  0  0  0  0  0  0  0  0  0
  -15.0470  -24.0500   26.3749 C   0  0  0  0  0  0  0  0  0  0  0  0
  -16.5094  -23.9175   25.5147 Cl  0  0  0  0  0  0  0  0  0  0  0  0
  -13.8771  -23.5099   25.9076 C   0  0  0  0  0  0  0  0  0  0  0  0
  -12.7105  -23.6175   26.5674 N   0  0  0  0  0  0  0  0  0  0  0  0
  -12.4576  -25.3259   20.0042 N   0  0  0  0  0  0  0  0  0  0  0  0
  -12.7467  -26.6391   19.0082 C   0  0  0  0  0  0  0  0  0  0  0  0
  -13.7125  -26.3540   18.1089 C   0  0  0  0  0  0  0  0  0  0  0  0
  -13.8946  -25.0058   18.3330 C   0  0  0  0  0  0  0  0  0  0  0  0
  -13.2695  -24.4360   19.3900 N   0  0  0  0  0  0  0  0  0  0  0  0
   -8.0749  -24.9420   20.1838 H   0  0  0  0  0  0  0  0  0  0  0  0
   -8.2594  -24.2932   21.5550 H   0  0  0  0  0  0  0  0  0  0  0  0
   -9.1528  -25.7727   21.2984 H   0  0  0  0  0  0  0  0  0  0  0  0
  -11.2694  -24.1617   21.0778 H   0  0  0  0  0  0  0  0  0  0  0  0
   -9.4562  -27.0991   22.8881 H   0  0  0  0  0  0  0  0  0  0  0  0
  -10.6914  -26.3234   23.2645 H   0  0  0  0  0  0  0  0  0  0  0  0
   -8.9891  -27.6955   24.5251 H   0  0  0  0  0  0  0  0  0  0  0  0
   -8.5308  -28.0424   26.7512 H   0  0  0  0  0  0  0  0  0  0  0  0
  -10.1749  -28.6684   26.9059 H   0  0  0  0  0  0  0  0  0  0  0  0
  -10.2646  -27.0834   28.4596 H   0  0  0  0  0  0  0  0  0  0  0  0
   -9.3500  -24.9009   28.0268 H   0  0  0  0  0  0  0  0  0  0  0  0
  -11.0783  -25.3449   26.1854 H   0  0  0  0  0  0  0  0  0  0  0  0
  -12.1157  -26.5475   27.0466 H   0  0  0  0  0  0  0  0  0  0  0  0
  -11.8208  -25.2987   29.0471 H   0  0  0  0  0  0  0  0  0  0  0  0
  -15.8541  -25.0779   28.0800 H   0  0  0  0  0  0  0  0  0  0  0  0
  -13.8285  -22.9586   24.9734 H   0  0  0  0  0  0  0  0  0  0  0  0
  -12.0554  -27.4688   19.0617 H   0  0  0  0  0  0  0  0  0  0  0  0
  -14.0855  -26.9657   17.3027 H   0  0  0  0  0  0  0  0  0  0  0  0
  -14.4873  -24.3957   17.6848 H   0  0  0  0  0  0  0  0  0  0  0  0
  1  2  1  0
  2  3  1  0
  3  4  1  0
  4  5  2  0
  4  6  1  0
  6  7  1  0
  7  8  1  0
  8  9  1  0
  8 10  1  0
 10 11  1  0
 11 12  1  0
 12 13  2  0
 13 14  1  0
 14 15  2  0
 15 16  1  0
 15 17  1  0
 17 18  2  0
  2 19  1  0
 19 20  1  0
 20 21  2  0
 21 22  1  0
 22 23  2  0
 18 12  1  0
 23 19  1  0
  1 24  1  0
  1 25  1  0
  1 26  1  0
  2 27  1  0
  3 28  1  0
  3 29  1  0
  6 30  1  0
  7 31  1  0
  7 32  1  0
  8 33  1  0
  9 34  1  0
 10 35  1  0
 10 36  1  0
 11 37  1  0
 14 38  1  0
 17 39  1  0
 20 40  1  0
 21 41  1  0
 22 42  1  0
M  END
>  <Energy>  (327) 
544.56393063604776

>  <compound_id>  (327) 
5064

>  <target_id>  (327) 
1

>  <reference_id>  (327) 
54

>  <inspiration_ids>  (327) 
[54, 112]

>  <energy_score>  (327) 
562.7650895722097

>  <distance_score>  (327) 
5.915025920820589

>  <path>  (327) 
/opt/xchem-fragalysis-2/maxwin/BulkDock/SCRATCH/511018/C5064-P54/C5064-P54.minimised.mol

>  <scratch_subdir>  (327) 
/opt/xchem-fragalysis-2/maxwin/BulkDock/SCRATCH/511018/C5064-P54

>  <fragmenstein_runtime>  (327) 
17.608426570892334

>  <fragmenstein_outcome>  (327) 
too moved

>  <fragmenstein_mode>  (327) 
expansion

>  <fragmenstein_error>  (327) 


$$$$
C5064-P112
     RDKit          3D

 42 43  0  0  0  0  0  0  0  0999 V2000
   -9.7743  -25.5219   21.0477 C   0  0  0  0  0  0  0  0  0  0  0  0
  -10.8054  -26.0075   21.9560 C   0  0  0  0  0  0  0  0  0  0  0  0
  -11.0773  -25.9753   24.3214 C   0  0  0  0  0  0  0  0  0  0  0  0
  -10.2574  -24.9359   25.5143 C   0  0  0  0  0  0  0  0  0  0  0  0
   -9.2452  -24.5070   25.1092 O   0  0  0  0  0  0  0  0  0  0  0  0
  -10.8545  -24.8082   26.7489 N   0  0  0  0  0  0  0  0  0  0  0  0
  -10.4826  -24.0408   27.8925 C   0  0  0  0  0  0  0  0  0  0  0  0
  -11.4658  -22.9981   28.3443 C   0  0  0  0  0  0  0  0  0  0  0  0
  -11.1378  -22.1677   29.4441 O   0  0  0  0  0  0  0  0  0  0  0  0
  -12.0000  -22.1517   27.2789 C   0  0  0  0  0  0  0  0  0  0  0  0
  -12.6871  -22.9532   26.2830 N   0  0  0  0  0  0  0  0  0  0  0  0
  -12.7344  -22.2819   25.0815 C   0  0  0  0  0  0  0  0  0  0  0  0
  -12.0035  -21.1983   24.8911 N   0  0  0  0  0  0  0  0  0  0  0  0
  -11.4858  -21.0343   23.6959 C   0  0  0  0  0  0  0  0  0  0  0  0
  -11.8972  -21.7413   22.6738 C   0  0  0  0  0  0  0  0  0  0  0  0
  -11.1353  -21.6934   21.2203 Cl  0  0  0  0  0  0  0  0  0  0  0  0
  -13.0020  -22.4573   22.9533 C   0  0  0  0  0  0  0  0  0  0  0  0
  -13.4688  -22.8101   24.1422 N   0  0  0  0  0  0  0  0  0  0  0  0
  -11.7888  -25.1893   20.2918 N   0  0  0  0  0  0  0  0  0  0  0  0
  -12.0561  -26.3350   18.9465 C   0  0  0  0  0  0  0  0  0  0  0  0
  -13.1475  -26.1155   18.1987 C   0  0  0  0  0  0  0  0  0  0  0  0
  -13.6256  -25.0610   18.8996 C   0  0  0  0  0  0  0  0  0  0  0  0
  -13.0214  -24.6403   20.0492 N   0  0  0  0  0  0  0  0  0  0  0  0
  -10.0666  -24.5489   20.5217 H   0  0  0  0  0  0  0  0  0  0  0  0
   -8.8386  -24.9822   20.9344 H   0  0  0  0  0  0  0  0  0  0  0  0
  -10.0370  -26.5016   20.6095 H   0  0  0  0  0  0  0  0  0  0  0  0
  -11.3210  -24.9415   21.4958 H   0  0  0  0  0  0  0  0  0  0  0  0
  -10.9161  -27.0544   24.7652 H   0  0  0  0  0  0  0  0  0  0  0  0
  -12.0753  -25.7964   24.9897 H   0  0  0  0  0  0  0  0  0  0  0  0
  -11.7635  -25.2415   26.7181 H   0  0  0  0  0  0  0  0  0  0  0  0
  -10.2865  -24.7791   28.6249 H   0  0  0  0  0  0  0  0  0  0  0  0
   -9.5053  -23.6012   27.7128 H   0  0  0  0  0  0  0  0  0  0  0  0
  -12.3168  -23.5483   28.6280 H   0  0  0  0  0  0  0  0  0  0  0  0
  -11.9922  -21.8536   29.7999 H   0  0  0  0  0  0  0  0  0  0  0  0
  -12.6535  -21.4608   27.7839 H   0  0  0  0  0  0  0  0  0  0  0  0
  -11.1925  -21.5419   26.9366 H   0  0  0  0  0  0  0  0  0  0  0  0
  -13.6789  -23.0380   26.4429 H   0  0  0  0  0  0  0  0  0  0  0  0
  -10.6847  -20.3455   23.5793 H   0  0  0  0  0  0  0  0  0  0  0  0
  -13.4666  -22.9015   22.1205 H   0  0  0  0  0  0  0  0  0  0  0  0
  -11.7560  -27.3233   19.1656 H   0  0  0  0  0  0  0  0  0  0  0  0
  -13.5487  -26.6605   17.3599 H   0  0  0  0  0  0  0  0  0  0  0  0
  -14.4404  -24.5134   18.4546 H   0  0  0  0  0  0  0  0  0  0  0  0
  1  2  1  0
  2  3  1  0
  3  4  1  0
  4  5  2  0
  4  6  1  0
  6  7  1  0
  7  8  1  0
  8  9  1  0
  8 10  1  0
 10 11  1  0
 11 12  1  0
 12 13  2  0
 13 14  1  0
 14 15  2  0
 15 16  1  0
 15 17  1  0
 17 18  2  0
  2 19  1  0
 19 20  1  0
 20 21  2  0
 21 22  1  0
 22 23  2  0
 18 12  1  0
 23 19  1  0
  1 24  1  0
  1 25  1  0
  1 26  1  0
  2 27  1  0
  3 28  1  0
  3 29  1  0
  6 30  1  0
  7 31  1  0
  7 32  1  0
  8 33  1  0
  9 34  1  0
 10 35  1  0
 10 36  1  0
 11 37  1  0
 14 38  1  0
 17 39  1  0
 20 40  1  0
 21 41  1  0
 22 42  1  0
M  END
>  <Energy>  (328) 
745.65997487703271

>  <compound_id>  (328) 
5064

>  <target_id>  (328) 
1

>  <reference_id>  (328) 
112

>  <inspiration_ids>  (328) 
[54, 112]

>  <energy_score>  (328) 
763.8611338131918

>  <distance_score>  (328) 
5.891290283039984

>  <path>  (328) 
/opt/xchem-fragalysis-2/maxwin/BulkDock/SCRATCH/511018/C5064-P112/C5064-P112.minimised.mol

>  <scratch_subdir>  (328) 
/opt/xchem-fragalysis-2/maxwin/BulkDock/SCRATCH/511018/C5064-P112

>  <fragmenstein_runtime>  (328) 
17.573268175125122

>  <fragmenstein_outcome>  (328) 
too moved

>  <fragmenstein_mode>  (328) 
expansion

>  <fragmenstein_error>  (328) 


$$$$
C5068-P54
     RDKit          3D

 44 45  0  0  0  0  0  0  0  0999 V2000
  -11.5877  -20.7637   23.4970 C   0  0  0  0  0  0  0  0  0  0  0  0
  -12.0248  -22.1798   23.2330 C   0  0  0  0  0  0  0  0  0  0  0  0
  -11.9400  -22.3959   21.5715 C   0  0  0  0  0  0  0  0  0  0  0  0
  -12.5340  -23.1251   20.3237 N   0  0  0  0  0  0  0  0  0  0  0  0
  -13.1362  -24.5784   20.1616 C   0  0  0  0  0  0  0  0  0  0  0  0
  -13.3466  -25.4215   20.9816 O   0  0  0  0  0  0  0  0  0  0  0  0
  -13.7036  -25.0117   18.5895 C   0  0  0  0  0  0  0  0  0  0  0  0
  -13.5895  -26.4942   18.1566 C   0  0  0  0  0  0  0  0  0  0  0  0
  -14.0980  -26.7802   16.7236 C   0  0  0  0  0  0  0  0  0  0  0  0
  -13.1046  -26.7653   15.6654 N   0  0  0  0  0  0  0  0  0  0  0  0
  -13.2705  -26.2991   14.3890 C   0  0  0  0  0  0  0  0  0  0  0  0
  -12.0523  -26.4498   13.7666 C   0  0  0  0  0  0  0  0  0  0  0  0
  -11.2282  -27.0472   14.7367 C   0  0  0  0  0  0  0  0  0  0  0  0
  -11.8766  -27.2674   15.8823 N   0  0  0  0  0  0  0  0  0  0  0  0
  -13.0818  -22.7330   24.1937 N   0  0  0  0  0  0  0  0  0  0  0  0
  -14.2884  -21.9870   24.5184 C   0  0  0  0  0  0  0  0  0  0  0  0
  -12.5627  -23.1244   25.5136 C   0  0  0  0  0  0  0  0  0  0  0  0
  -11.4126  -22.6019   25.9789 N   0  0  0  0  0  0  0  0  0  0  0  0
  -10.9935  -22.9553   27.2091 C   0  0  0  0  0  0  0  0  0  0  0  0
  -11.5715  -23.8525   28.0158 N   0  0  0  0  0  0  0  0  0  0  0  0
  -12.6804  -24.4189   27.5130 C   0  0  0  0  0  0  0  0  0  0  0  0
  -13.2235  -24.1022   26.2802 C   0  0  0  0  0  0  0  0  0  0  0  0
  -14.6034  -24.9862   25.7608 Cl  0  0  0  0  0  0  0  0  0  0  0  0
  -11.8816  -20.3565   24.4564 H   0  0  0  0  0  0  0  0  0  0  0  0
  -11.9362  -20.1205   22.7253 H   0  0  0  0  0  0  0  0  0  0  0  0
  -10.5100  -20.6994   23.3491 H   0  0  0  0  0  0  0  0  0  0  0  0
  -11.1119  -22.6763   23.5632 H   0  0  0  0  0  0  0  0  0  0  0  0
  -11.9818  -21.3700   21.2194 H   0  0  0  0  0  0  0  0  0  0  0  0
  -10.8805  -22.3976   21.3330 H   0  0  0  0  0  0  0  0  0  0  0  0
  -12.5707  -22.6436   19.4387 H   0  0  0  0  0  0  0  0  0  0  0  0
  -14.7581  -24.7734   18.4623 H   0  0  0  0  0  0  0  0  0  0  0  0
  -13.3597  -24.3630   17.8278 H   0  0  0  0  0  0  0  0  0  0  0  0
  -12.5744  -26.8731   18.3040 H   0  0  0  0  0  0  0  0  0  0  0  0
  -14.2207  -27.0793   18.8321 H   0  0  0  0  0  0  0  0  0  0  0  0
  -14.8986  -26.0850   16.4476 H   0  0  0  0  0  0  0  0  0  0  0  0
  -14.5179  -27.7935   16.6959 H   0  0  0  0  0  0  0  0  0  0  0  0
  -14.2095  -25.8865   14.0485 H   0  0  0  0  0  0  0  0  0  0  0  0
  -11.7914  -26.1652   12.7579 H   0  0  0  0  0  0  0  0  0  0  0  0
  -10.1862  -27.3319   14.6590 H   0  0  0  0  0  0  0  0  0  0  0  0
  -15.1717  -22.4883   24.1386 H   0  0  0  0  0  0  0  0  0  0  0  0
  -14.2783  -20.9672   24.1557 H   0  0  0  0  0  0  0  0  0  0  0  0
  -14.5285  -21.9526   25.5792 H   0  0  0  0  0  0  0  0  0  0  0  0
  -10.0958  -22.4700   27.5769 H   0  0  0  0  0  0  0  0  0  0  0  0
  -13.1398  -25.1677   28.1516 H   0  0  0  0  0  0  0  0  0  0  0  0
  1  2  1  0
  2  3  1  0
  3  4  1  0
  4  5  1  0
  5  6  2  0
  5  7  1  0
  7  8  1  0
  8  9  1  0
  9 10  1  0
 10 11  1  0
 11 12  2  0
 12 13  1  0
 13 14  2  0
  2 15  1  0
 15 16  1  0
 15 17  1  0
 17 18  2  0
 18 19  1  0
 19 20  2  0
 20 21  1  0
 21 22  2  0
 22 23  1  0
 14 10  1  0
 22 17  1  0
  1 24  1  0
  1 25  1  0
  1 26  1  0
  2 27  1  0
  3 28  1  0
  3 29  1  0
  4 30  1  0
  7 31  1  0
  7 32  1  0
  8 33  1  0
  8 34  1  0
  9 35  1  0
  9 36  1  0
 11 37  1  0
 12 38  1  0
 13 39  1  0
 16 40  1  0
 16 41  1  0
 16 42  1  0
 19 43  1  0
 21 44  1  0
M  END
>  <Energy>  (329) 
130.86964031550224

>  <compound_id>  (329) 
5068

>  <target_id>  (329) 
1

>  <reference_id>  (329) 
54

>  <inspiration_ids>  (329) 
[54, 112]

>  <energy_score>  (329) 
80.26913423058011

>  <distance_score>  (329) 
4.531246983414801

>  <path>  (329) 
/opt/xchem-fragalysis-2/maxwin/BulkDock/SCRATCH/511018/C5068-P54/C5068-P54.minimised.mol

>  <scratch_subdir>  (329) 
/opt/xchem-fragalysis-2/maxwin/BulkDock/SCRATCH/511018/C5068-P54

>  <fragmenstein_runtime>  (329) 
9.306175231933594

>  <fragmenstein_outcome>  (329) 
too moved

>  <fragmenstein_mode>  (329) 
expansion

>  <fragmenstein_error>  (329) 


$$$$
C5068-P112
     RDKit          3D

 44 45  0  0  0  0  0  0  0  0999 V2000
  -11.9369  -21.1853   23.1219 C   0  0  0  0  0  0  0  0  0  0  0  0
  -12.7070  -22.4336   22.7601 C   0  0  0  0  0  0  0  0  0  0  0  0
  -12.4376  -22.9710   21.0325 C   0  0  0  0  0  0  0  0  0  0  0  0
  -12.6007  -24.5447   20.3012 N   0  0  0  0  0  0  0  0  0  0  0  0
  -13.4356  -25.0200   19.0703 C   0  0  0  0  0  0  0  0  0  0  0  0
  -14.1486  -24.3939   18.3122 O   0  0  0  0  0  0  0  0  0  0  0  0
  -13.2511  -26.4957   18.6875 C   0  0  0  0  0  0  0  0  0  0  0  0
  -13.9633  -26.9079   17.3659 C   0  0  0  0  0  0  0  0  0  0  0  0
  -13.5664  -26.1921   16.0606 C   0  0  0  0  0  0  0  0  0  0  0  0
  -12.2514  -26.4687   15.5145 N   0  0  0  0  0  0  0  0  0  0  0  0
  -11.8263  -26.1239   14.2586 C   0  0  0  0  0  0  0  0  0  0  0  0
  -10.5022  -26.4837   14.1892 C   0  0  0  0  0  0  0  0  0  0  0  0
  -10.2226  -27.0485   15.4454 C   0  0  0  0  0  0  0  0  0  0  0  0
  -11.2909  -27.0592   16.2482 N   0  0  0  0  0  0  0  0  0  0  0  0
  -13.8845  -22.9798   23.6930 N   0  0  0  0  0  0  0  0  0  0  0  0
  -15.0581  -22.1978   24.1083 C   0  0  0  0  0  0  0  0  0  0  0  0
  -13.4653  -23.5447   24.9738 C   0  0  0  0  0  0  0  0  0  0  0  0
  -12.4990  -22.9295   25.6844 N   0  0  0  0  0  0  0  0  0  0  0  0
  -11.8290  -23.6442   26.6014 C   0  0  0  0  0  0  0  0  0  0  0  0
  -11.8984  -24.9687   26.7320 N   0  0  0  0  0  0  0  0  0  0  0  0
  -12.9457  -25.5457   26.1382 C   0  0  0  0  0  0  0  0  0  0  0  0
  -13.8114  -24.8746   25.2898 C   0  0  0  0  0  0  0  0  0  0  0  0
  -15.1143  -25.7793   24.6490 Cl  0  0  0  0  0  0  0  0  0  0  0  0
  -12.3355  -20.6946   24.0069 H   0  0  0  0  0  0  0  0  0  0  0  0
  -11.8326  -20.5745   22.2372 H   0  0  0  0  0  0  0  0  0  0  0  0
  -10.8844  -21.3949   23.3532 H   0  0  0  0  0  0  0  0  0  0  0  0
  -11.8821  -22.9323   23.2151 H   0  0  0  0  0  0  0  0  0  0  0  0
  -12.5885  -22.2476   20.2645 H   0  0  0  0  0  0  0  0  0  0  0  0
  -11.3579  -22.8731   21.0913 H   0  0  0  0  0  0  0  0  0  0  0  0
  -12.0579  -25.3150   20.6538 H   0  0  0  0  0  0  0  0  0  0  0  0
  -12.1894  -26.7113   18.5977 H   0  0  0  0  0  0  0  0  0  0  0  0
  -13.6970  -27.1035   19.4782 H   0  0  0  0  0  0  0  0  0  0  0  0
  -13.8239  -27.9887   17.2341 H   0  0  0  0  0  0  0  0  0  0  0  0
  -15.0413  -26.7540   17.5087 H   0  0  0  0  0  0  0  0  0  0  0  0
  -13.6488  -25.1068   16.1428 H   0  0  0  0  0  0  0  0  0  0  0  0
  -14.2756  -26.5039   15.2828 H   0  0  0  0  0  0  0  0  0  0  0  0
  -12.4838  -25.6428   13.5481 H   0  0  0  0  0  0  0  0  0  0  0  0
   -9.8269  -26.3481   13.3569 H   0  0  0  0  0  0  0  0  0  0  0  0
   -9.2812  -27.4442   15.8082 H   0  0  0  0  0  0  0  0  0  0  0  0
  -15.9435  -22.4561   23.5238 H   0  0  0  0  0  0  0  0  0  0  0  0
  -14.9094  -21.1261   24.0671 H   0  0  0  0  0  0  0  0  0  0  0  0
  -15.4349  -22.4613   25.1009 H   0  0  0  0  0  0  0  0  0  0  0  0
  -11.1538  -23.1147   27.2614 H   0  0  0  0  0  0  0  0  0  0  0  0
  -13.0735  -26.5983   26.3763 H   0  0  0  0  0  0  0  0  0  0  0  0
  1  2  1  0
  2  3  1  0
  3  4  1  0
  4  5  1  0
  5  6  2  0
  5  7  1  0
  7  8  1  0
  8  9  1  0
  9 10  1  0
 10 11  1  0
 11 12  2  0
 12 13  1  0
 13 14  2  0
  2 15  1  0
 15 16  1  0
 15 17  1  0
 17 18  2  0
 18 19  1  0
 19 20  2  0
 20 21  1  0
 21 22  2  0
 22 23  1  0
 14 10  1  0
 22 17  1  0
  1 24  1  0
  1 25  1  0
  1 26  1  0
  2 27  1  0
  3 28  1  0
  3 29  1  0
  4 30  1  0
  7 31  1  0
  7 32  1  0
  8 33  1  0
  8 34  1  0
  9 35  1  0
  9 36  1  0
 11 37  1  0
 12 38  1  0
 13 39  1  0
 16 40  1  0
 16 41  1  0
 16 42  1  0
 19 43  1  0
 21 44  1  0
M  END
>  <Energy>  (330) 
144.81438995773368

>  <compound_id>  (330) 
5068

>  <target_id>  (330) 
1

>  <reference_id>  (330) 
112

>  <inspiration_ids>  (330) 
[54, 112]

>  <energy_score>  (330) 
94.21388387281206

>  <distance_score>  (330) 
4.470823158313214

>  <path>  (330) 
/opt/xchem-fragalysis-2/maxwin/BulkDock/SCRATCH/511018/C5068-P112/C5068-P112.minimised.mol

>  <scratch_subdir>  (330) 
/opt/xchem-fragalysis-2/maxwin/BulkDock/SCRATCH/511018/C5068-P112

>  <fragmenstein_runtime>  (330) 
14.118332624435425

>  <fragmenstein_outcome>  (330) 
too moved

>  <fragmenstein_mode>  (330) 
expansion

>  <fragmenstein_error>  (330) 


$$$$
C5069-P54
     RDKit          3D

 44 45  0  0  0  0  0  0  0  0999 V2000
  -10.7186  -21.2539   21.6066 C   0  0  0  0  0  0  0  0  0  0  0  0
  -11.6128  -22.2159   22.2982 C   0  0  0  0  0  0  0  0  0  0  0  0
  -12.4104  -22.9704   21.0107 C   0  0  0  0  0  0  0  0  0  0  0  0
  -12.6498  -24.5094   20.3817 N   0  0  0  0  0  0  0  0  0  0  0  0
  -13.4243  -24.9735   19.1658 C   0  0  0  0  0  0  0  0  0  0  0  0
  -14.1188  -24.3597   18.4061 O   0  0  0  0  0  0  0  0  0  0  0  0
  -13.3059  -26.4831   18.6997 C   0  0  0  0  0  0  0  0  0  0  0  0
  -13.8019  -26.7177   17.2127 C   0  0  0  0  0  0  0  0  0  0  0  0
  -14.7900  -27.8835   17.1586 C   0  0  0  0  0  0  0  0  0  0  0  0
  -12.7567  -26.9392   16.2054 N   0  0  0  0  0  0  0  0  0  0  0  0
  -11.4872  -27.4208   16.3566 C   0  0  0  0  0  0  0  0  0  0  0  0
  -10.8890  -27.3513   15.1200 C   0  0  0  0  0  0  0  0  0  0  0  0
  -11.8960  -26.8773   14.2673 C   0  0  0  0  0  0  0  0  0  0  0  0
  -13.0446  -26.6620   14.9114 N   0  0  0  0  0  0  0  0  0  0  0  0
  -12.5013  -21.6574   23.4403 N   0  0  0  0  0  0  0  0  0  0  0  0
  -11.9381  -20.4465   24.0524 C   0  0  0  0  0  0  0  0  0  0  0  0
  -12.5676  -22.5074   24.6315 C   0  0  0  0  0  0  0  0  0  0  0  0
  -11.4063  -22.8443   25.2759 N   0  0  0  0  0  0  0  0  0  0  0  0
  -11.4797  -23.5608   26.4122 C   0  0  0  0  0  0  0  0  0  0  0  0
  -12.5922  -24.0886   26.9272 N   0  0  0  0  0  0  0  0  0  0  0  0
  -13.7266  -23.7318   26.2868 C   0  0  0  0  0  0  0  0  0  0  0  0
  -13.7845  -22.9023   25.1756 C   0  0  0  0  0  0  0  0  0  0  0  0
  -15.3142  -22.3433   24.6451 Cl  0  0  0  0  0  0  0  0  0  0  0  0
  -10.2259  -21.6926   20.7385 H   0  0  0  0  0  0  0  0  0  0  0  0
   -9.9059  -20.9456   22.2665 H   0  0  0  0  0  0  0  0  0  0  0  0
  -11.3365  -20.4325   21.2820 H   0  0  0  0  0  0  0  0  0  0  0  0
  -10.9206  -22.7315   22.9127 H   0  0  0  0  0  0  0  0  0  0  0  0
  -13.2651  -23.0112   21.6450 H   0  0  0  0  0  0  0  0  0  0  0  0
  -12.3936  -22.3664   20.1300 H   0  0  0  0  0  0  0  0  0  0  0  0
  -12.1109  -25.2652   20.7348 H   0  0  0  0  0  0  0  0  0  0  0  0
  -12.3019  -26.8753   18.7897 H   0  0  0  0  0  0  0  0  0  0  0  0
  -13.9567  -27.0550   19.3483 H   0  0  0  0  0  0  0  0  0  0  0  0
  -14.3497  -25.8453   16.8410 H   0  0  0  0  0  0  0  0  0  0  0  0
  -14.3125  -28.8196   17.4696 H   0  0  0  0  0  0  0  0  0  0  0  0
  -15.1826  -28.0334   16.1466 H   0  0  0  0  0  0  0  0  0  0  0  0
  -15.6440  -27.7000   17.8196 H   0  0  0  0  0  0  0  0  0  0  0  0
  -11.0923  -27.7445   17.3053 H   0  0  0  0  0  0  0  0  0  0  0  0
   -9.8698  -27.6119   14.8726 H   0  0  0  0  0  0  0  0  0  0  0  0
  -11.8451  -26.6829   13.2041 H   0  0  0  0  0  0  0  0  0  0  0  0
  -11.0715  -20.0355   23.5529 H   0  0  0  0  0  0  0  0  0  0  0  0
  -12.6580  -19.6599   24.1270 H   0  0  0  0  0  0  0  0  0  0  0  0
  -11.7095  -20.5392   25.1041 H   0  0  0  0  0  0  0  0  0  0  0  0
  -10.5479  -23.7506   26.9333 H   0  0  0  0  0  0  0  0  0  0  0  0
  -14.6399  -24.0999   26.7493 H   0  0  0  0  0  0  0  0  0  0  0  0
  1  2  1  0
  2  3  1  0
  3  4  1  0
  4  5  1  0
  5  6  2  0
  5  7  1  0
  7  8  1  0
  8  9  1  0
  8 10  1  0
 10 11  1  0
 11 12  2  0
 12 13  1  0
 13 14  2  0
  2 15  1  0
 15 16  1  0
 15 17  1  0
 17 18  2  0
 18 19  1  0
 19 20  2  0
 20 21  1  0
 21 22  2  0
 22 23  1  0
 14 10  1  0
 22 17  1  0
  1 24  1  0
  1 25  1  0
  1 26  1  0
  2 27  1  0
  3 28  1  0
  3 29  1  0
  4 30  1  0
  7 31  1  0
  7 32  1  0
  8 33  1  0
  9 34  1  0
  9 35  1  0
  9 36  1  0
 11 37  1  0
 12 38  1  0
 13 39  1  0
 16 40  1  0
 16 41  1  0
 16 42  1  0
 19 43  1  0
 21 44  1  0
M  END
>  <Energy>  (331) 
122.82414771074558

>  <compound_id>  (331) 
5069

>  <target_id>  (331) 
1

>  <reference_id>  (331) 
54

>  <inspiration_ids>  (331) 
[54, 112]

>  <energy_score>  (331) 
79.30382688036877

>  <distance_score>  (331) 
4.963141632212407

>  <path>  (331) 
/opt/xchem-fragalysis-2/maxwin/BulkDock/SCRATCH/511018/C5069-P54/C5069-P54.minimised.mol

>  <scratch_subdir>  (331) 
/opt/xchem-fragalysis-2/maxwin/BulkDock/SCRATCH/511018/C5069-P54

>  <fragmenstein_runtime>  (331) 
15.016550302505493

>  <fragmenstein_outcome>  (331) 
too moved

>  <fragmenstein_mode>  (331) 
expansion

>  <fragmenstein_error>  (331) 


$$$$
C5069-P112
     RDKit          3D

 44 45  0  0  0  0  0  0  0  0999 V2000
  -11.1422  -21.3205   21.9872 C   0  0  0  0  0  0  0  0  0  0  0  0
  -12.1011  -22.4038   22.4294 C   0  0  0  0  0  0  0  0  0  0  0  0
  -12.4649  -23.1062   20.9191 C   0  0  0  0  0  0  0  0  0  0  0  0
  -12.6842  -24.6222   20.2007 N   0  0  0  0  0  0  0  0  0  0  0  0
  -13.4831  -25.0399   18.9660 C   0  0  0  0  0  0  0  0  0  0  0  0
  -14.2188  -24.3974   18.2511 O   0  0  0  0  0  0  0  0  0  0  0  0
  -13.2486  -26.4741   18.4725 C   0  0  0  0  0  0  0  0  0  0  0  0
  -13.4389  -26.4652   16.9083 C   0  0  0  0  0  0  0  0  0  0  0  0
  -14.8586  -26.8467   16.4823 C   0  0  0  0  0  0  0  0  0  0  0  0
  -12.4364  -27.2667   16.2111 N   0  0  0  0  0  0  0  0  0  0  0  0
  -11.4406  -26.7965   15.3989 C   0  0  0  0  0  0  0  0  0  0  0  0
  -10.7934  -27.9008   14.9027 C   0  0  0  0  0  0  0  0  0  0  0  0
  -11.4772  -28.9883   15.4695 C   0  0  0  0  0  0  0  0  0  0  0  0
  -12.4556  -28.6088   16.2963 N   0  0  0  0  0  0  0  0  0  0  0  0
  -13.1003  -22.0656   23.5182 N   0  0  0  0  0  0  0  0  0  0  0  0
  -12.5224  -21.0454   24.3870 C   0  0  0  0  0  0  0  0  0  0  0  0
  -13.4429  -23.0151   24.5682 C   0  0  0  0  0  0  0  0  0  0  0  0
  -12.5321  -23.3853   25.5274 N   0  0  0  0  0  0  0  0  0  0  0  0
  -12.7054  -24.5436   26.1757 C   0  0  0  0  0  0  0  0  0  0  0  0
  -13.7034  -25.4041   25.9081 N   0  0  0  0  0  0  0  0  0  0  0  0
  -14.6957  -24.8846   25.1230 C   0  0  0  0  0  0  0  0  0  0  0  0
  -14.6733  -23.6092   24.5911 C   0  0  0  0  0  0  0  0  0  0  0  0
  -16.1170  -22.7477   24.2059 Cl  0  0  0  0  0  0  0  0  0  0  0  0
  -10.4175  -21.1055   22.7719 H   0  0  0  0  0  0  0  0  0  0  0  0
  -11.6772  -20.4471   21.6872 H   0  0  0  0  0  0  0  0  0  0  0  0
  -10.5167  -21.6229   21.1413 H   0  0  0  0  0  0  0  0  0  0  0  0
  -11.3594  -22.8860   23.0294 H   0  0  0  0  0  0  0  0  0  0  0  0
  -12.5113  -22.3551   20.1460 H   0  0  0  0  0  0  0  0  0  0  0  0
  -11.4264  -23.3678   20.9344 H   0  0  0  0  0  0  0  0  0  0  0  0
  -12.1117  -25.3923   20.5020 H   0  0  0  0  0  0  0  0  0  0  0  0
  -12.2223  -26.7672   18.6796 H   0  0  0  0  0  0  0  0  0  0  0  0
  -13.9442  -27.1553   18.9697 H   0  0  0  0  0  0  0  0  0  0  0  0
  -13.2629  -25.4573   16.5126 H   0  0  0  0  0  0  0  0  0  0  0  0
  -15.1119  -27.8620   16.8067 H   0  0  0  0  0  0  0  0  0  0  0  0
  -14.9623  -26.8124   15.3920 H   0  0  0  0  0  0  0  0  0  0  0  0
  -15.5990  -26.1650   16.9119 H   0  0  0  0  0  0  0  0  0  0  0  0
  -11.2803  -25.7436   15.2278 H   0  0  0  0  0  0  0  0  0  0  0  0
   -9.9562  -27.9168   14.2192 H   0  0  0  0  0  0  0  0  0  0  0  0
  -11.2967  -30.0443   15.3212 H   0  0  0  0  0  0  0  0  0  0  0  0
  -13.3376  -20.3751   24.5438 H   0  0  0  0  0  0  0  0  0  0  0  0
  -12.1224  -21.3121   25.3651 H   0  0  0  0  0  0  0  0  0  0  0  0
  -11.7237  -20.4802   23.9557 H   0  0  0  0  0  0  0  0  0  0  0  0
  -11.9457  -24.8231   26.8952 H   0  0  0  0  0  0  0  0  0  0  0  0
  -15.5995  -25.4874   25.0731 H   0  0  0  0  0  0  0  0  0  0  0  0
  1  2  1  0
  2  3  1  0
  3  4  1  0
  4  5  1  0
  5  6  2  0
  5  7  1  0
  7  8  1  0
  8  9  1  0
  8 10  1  0
 10 11  1  0
 11 12  2  0
 12 13  1  0
 13 14  2  0
  2 15  1  0
 15 16  1  0
 15 17  1  0
 17 18  2  0
 18 19  1  0
 19 20  2  0
 20 21  1  0
 21 22  2  0
 22 23  1  0
 14 10  1  0
 22 17  1  0
  1 24  1  0
  1 25  1  0
  1 26  1  0
  2 27  1  0
  3 28  1  0
  3 29  1  0
  4 30  1  0
  7 31  1  0
  7 32  1  0
  8 33  1  0
  9 34  1  0
  9 35  1  0
  9 36  1  0
 11 37  1  0
 12 38  1  0
 13 39  1  0
 16 40  1  0
 16 41  1  0
 16 42  1  0
 19 43  1  0
 21 44  1  0
M  END
>  <Energy>  (332) 
153.48255561954227

>  <compound_id>  (332) 
5069

>  <target_id>  (332) 
1

>  <reference_id>  (332) 
112

>  <inspiration_ids>  (332) 
[54, 112]

>  <energy_score>  (332) 
109.96223478916284

>  <distance_score>  (332) 
5.01626669843115

>  <path>  (332) 
/opt/xchem-fragalysis-2/maxwin/BulkDock/SCRATCH/511018/C5069-P112/C5069-P112.minimised.mol

>  <scratch_subdir>  (332) 
/opt/xchem-fragalysis-2/maxwin/BulkDock/SCRATCH/511018/C5069-P112

>  <fragmenstein_runtime>  (332) 
19.98319911956787

>  <fragmenstein_outcome>  (332) 
too moved

>  <fragmenstein_mode>  (332) 
expansion

>  <fragmenstein_error>  (332) 


$$$$
C5070-P54
     RDKit          3D

 47 48  0  0  0  0  0  0  0  0999 V2000
  -10.0751  -24.5934   27.5993 C   0  0  0  0  0  0  0  0  0  0  0  0
  -10.7466  -25.6459   26.7663 C   0  0  0  0  0  0  0  0  0  0  0  0
  -11.7124  -26.3205   27.3729 N   0  0  0  0  0  0  0  0  0  0  0  0
  -12.3771  -27.1434   26.5802 C   0  0  0  0  0  0  0  0  0  0  0  0
  -12.0936  -27.3365   25.2269 C   0  0  0  0  0  0  0  0  0  0  0  0
  -11.0398  -26.6877   24.5731 C   0  0  0  0  0  0  0  0  0  0  0  0
  -10.4123  -26.7095   22.7145 N   0  0  0  0  0  0  0  0  0  0  0  0
   -9.0032  -27.6218   23.7177 C   0  0  0  0  0  0  0  0  0  0  0  0
  -10.9742  -25.1472   21.2664 C   0  0  0  0  0  0  0  0  0  0  0  0
  -11.4121  -23.1255   21.3215 C   0  0  0  0  0  0  0  0  0  0  0  0
  -12.7638  -25.1896   20.3943 C   0  0  0  0  0  0  0  0  0  0  0  0
  -13.3447  -25.8365   19.1180 N   0  0  0  0  0  0  0  0  0  0  0  0
  -13.0172  -27.0802   18.4427 C   0  0  0  0  0  0  0  0  0  0  0  0
  -12.2676  -27.9602   18.7472 O   0  0  0  0  0  0  0  0  0  0  0  0
  -13.8262  -27.1134   17.1358 C   0  0  0  0  0  0  0  0  0  0  0  0
  -13.5227  -28.2812   16.2002 C   0  0  0  0  0  0  0  0  0  0  0  0
  -12.0984  -28.3169   15.6397 C   0  0  0  0  0  0  0  0  0  0  0  0
  -11.7156  -27.2005   14.8049 N   0  0  0  0  0  0  0  0  0  0  0  0
  -10.5038  -26.5720   14.8069 C   0  0  0  0  0  0  0  0  0  0  0  0
  -10.5487  -25.6509   13.7899 C   0  0  0  0  0  0  0  0  0  0  0  0
  -11.8224  -25.8155   13.2279 C   0  0  0  0  0  0  0  0  0  0  0  0
  -12.5506  -26.7417   13.8541 N   0  0  0  0  0  0  0  0  0  0  0  0
  -10.3843  -25.8313   25.4555 N   0  0  0  0  0  0  0  0  0  0  0  0
   -9.0825  -24.9341   27.8990 H   0  0  0  0  0  0  0  0  0  0  0  0
  -10.6509  -24.3904   28.5085 H   0  0  0  0  0  0  0  0  0  0  0  0
  -10.0028  -23.6575   27.0389 H   0  0  0  0  0  0  0  0  0  0  0  0
  -13.2180  -27.6527   27.0467 H   0  0  0  0  0  0  0  0  0  0  0  0
  -12.8586  -27.8906   24.7723 H   0  0  0  0  0  0  0  0  0  0  0  0
   -8.0066  -27.5330   23.3445 H   0  0  0  0  0  0  0  0  0  0  0  0
   -8.6267  -28.6909   23.6121 H   0  0  0  0  0  0  0  0  0  0  0  0
   -9.2460  -27.7494   24.7902 H   0  0  0  0  0  0  0  0  0  0  0  0
  -10.1803  -24.8465   20.6371 H   0  0  0  0  0  0  0  0  0  0  0  0
  -10.6718  -22.4966   20.7797 H   0  0  0  0  0  0  0  0  0  0  0  0
  -11.4137  -22.6412   22.3329 H   0  0  0  0  0  0  0  0  0  0  0  0
  -12.3743  -22.8490   20.9083 H   0  0  0  0  0  0  0  0  0  0  0  0
  -13.5283  -25.2627   21.1681 H   0  0  0  0  0  0  0  0  0  0  0  0
  -12.8257  -24.2085   19.9892 H   0  0  0  0  0  0  0  0  0  0  0  0
  -13.9612  -25.2908   18.5270 H   0  0  0  0  0  0  0  0  0  0  0  0
  -13.6816  -26.1714   16.5985 H   0  0  0  0  0  0  0  0  0  0  0  0
  -14.8852  -27.1683   17.4193 H   0  0  0  0  0  0  0  0  0  0  0  0
  -14.2432  -28.2614   15.3731 H   0  0  0  0  0  0  0  0  0  0  0  0
  -13.6979  -29.2207   16.7394 H   0  0  0  0  0  0  0  0  0  0  0  0
  -11.3620  -28.3976   16.4457 H   0  0  0  0  0  0  0  0  0  0  0  0
  -11.9831  -29.2102   15.0135 H   0  0  0  0  0  0  0  0  0  0  0  0
   -9.7244  -26.8321   15.5110 H   0  0  0  0  0  0  0  0  0  0  0  0
   -9.7745  -24.9604   13.4890 H   0  0  0  0  0  0  0  0  0  0  0  0
  -12.2469  -25.2960   12.3861 H   0  0  0  0  0  0  0  0  0  0  0  0
  1  2  1  0
  2  3  2  0
  3  4  1  0
  4  5  2  0
  5  6  1  0
  6  7  1  0
  7  8  1  0
  7  9  1  0
  9 10  1  0
  9 11  1  0
 11 12  1  0
 12 13  1  0
 13 14  2  0
 13 15  1  0
 15 16  1  0
 16 17  1  0
 17 18  1  0
 18 19  1  0
 19 20  2  0
 20 21  1  0
 21 22  2  0
  6 23  2  0
 23  2  1  0
 22 18  1  0
  1 24  1  0
  1 25  1  0
  1 26  1  0
  4 27  1  0
  5 28  1  0
  8 29  1  0
  8 30  1  0
  8 31  1  0
  9 32  1  0
 10 33  1  0
 10 34  1  0
 10 35  1  0
 11 36  1  0
 11 37  1  0
 12 38  1  0
 15 39  1  0
 15 40  1  0
 16 41  1  0
 16 42  1  0
 17 43  1  0
 17 44  1  0
 19 45  1  0
 20 46  1  0
 21 47  1  0
M  END
>  <Energy>  (333) 
624.4104354443931

>  <compound_id>  (333) 
5070

>  <target_id>  (333) 
1

>  <reference_id>  (333) 
54

>  <inspiration_ids>  (333) 
[54, 112]

>  <energy_score>  (333) 
606.9400545528965

>  <distance_score>  (333) 
4.586529101341944

>  <path>  (333) 
/opt/xchem-fragalysis-2/maxwin/BulkDock/SCRATCH/511018/C5070-P54/C5070-P54.minimised.mol

>  <scratch_subdir>  (333) 
/opt/xchem-fragalysis-2/maxwin/BulkDock/SCRATCH/511018/C5070-P54

>  <fragmenstein_runtime>  (333) 
16.94241738319397

>  <fragmenstein_outcome>  (333) 
too moved

>  <fragmenstein_mode>  (333) 
expansion

>  <fragmenstein_error>  (333) 


$$$$
C5070-P112
     RDKit          3D

 47 48  0  0  0  0  0  0  0  0999 V2000
  -11.5005  -23.3041   27.4067 C   0  0  0  0  0  0  0  0  0  0  0  0
  -12.4207  -23.9009   26.3906 C   0  0  0  0  0  0  0  0  0  0  0  0
  -12.8321  -25.1809   26.5258 N   0  0  0  0  0  0  0  0  0  0  0  0
  -13.7537  -25.6272   25.6659 C   0  0  0  0  0  0  0  0  0  0  0  0
  -14.2654  -24.8497   24.6595 C   0  0  0  0  0  0  0  0  0  0  0  0
  -13.6585  -23.6120   24.4461 C   0  0  0  0  0  0  0  0  0  0  0  0
  -13.9022  -22.8674   23.1994 N   0  0  0  0  0  0  0  0  0  0  0  0
  -14.4373  -21.7248   23.9364 C   0  0  0  0  0  0  0  0  0  0  0  0
  -12.6667  -22.7006   21.9273 C   0  0  0  0  0  0  0  0  0  0  0  0
  -11.6842  -21.5214   21.8202 C   0  0  0  0  0  0  0  0  0  0  0  0
  -12.4960  -24.1113   20.5738 C   0  0  0  0  0  0  0  0  0  0  0  0
  -13.3575  -24.6224   19.2665 N   0  0  0  0  0  0  0  0  0  0  0  0
  -13.8790  -25.9477   18.9131 C   0  0  0  0  0  0  0  0  0  0  0  0
  -13.8789  -26.9764   19.5257 O   0  0  0  0  0  0  0  0  0  0  0  0
  -14.4433  -25.8371   17.4720 C   0  0  0  0  0  0  0  0  0  0  0  0
  -14.3444  -27.1163   16.6367 C   0  0  0  0  0  0  0  0  0  0  0  0
  -14.0925  -26.8313   15.1452 C   0  0  0  0  0  0  0  0  0  0  0  0
  -12.7398  -26.4302   14.7951 N   0  0  0  0  0  0  0  0  0  0  0  0
  -12.3367  -25.9259   13.5892 C   0  0  0  0  0  0  0  0  0  0  0  0
  -10.9664  -25.8285   13.6544 C   0  0  0  0  0  0  0  0  0  0  0  0
  -10.6385  -26.2815   14.9440 C   0  0  0  0  0  0  0  0  0  0  0  0
  -11.7208  -26.6019   15.6579 N   0  0  0  0  0  0  0  0  0  0  0  0
  -12.7701  -23.1272   25.3508 N   0  0  0  0  0  0  0  0  0  0  0  0
  -10.5363  -23.8168   27.3930 H   0  0  0  0  0  0  0  0  0  0  0  0
  -11.3772  -22.2362   27.2203 H   0  0  0  0  0  0  0  0  0  0  0  0
  -11.9091  -23.3490   28.4038 H   0  0  0  0  0  0  0  0  0  0  0  0
  -14.1050  -26.6413   25.8333 H   0  0  0  0  0  0  0  0  0  0  0  0
  -15.0268  -25.2864   24.0412 H   0  0  0  0  0  0  0  0  0  0  0  0
  -15.1735  -21.0833   23.4592 H   0  0  0  0  0  0  0  0  0  0  0  0
  -13.5955  -21.1312   24.2942 H   0  0  0  0  0  0  0  0  0  0  0  0
  -15.1330  -22.0659   24.7226 H   0  0  0  0  0  0  0  0  0  0  0  0
  -11.9412  -22.9199   22.7068 H   0  0  0  0  0  0  0  0  0  0  0  0
  -11.8966  -20.7639   22.5660 H   0  0  0  0  0  0  0  0  0  0  0  0
  -11.6092  -21.1259   20.8233 H   0  0  0  0  0  0  0  0  0  0  0  0
  -10.6410  -21.7925   22.0244 H   0  0  0  0  0  0  0  0  0  0  0  0
  -11.4456  -24.3778   20.5310 H   0  0  0  0  0  0  0  0  0  0  0  0
  -12.7354  -25.0542   20.9912 H   0  0  0  0  0  0  0  0  0  0  0  0
  -13.4579  -24.0022   18.4681 H   0  0  0  0  0  0  0  0  0  0  0  0
  -13.9274  -25.0333   16.9360 H   0  0  0  0  0  0  0  0  0  0  0  0
  -15.4945  -25.5367   17.5502 H   0  0  0  0  0  0  0  0  0  0  0  0
  -15.2939  -27.6581   16.7310 H   0  0  0  0  0  0  0  0  0  0  0  0
  -13.5724  -27.7868   17.0320 H   0  0  0  0  0  0  0  0  0  0  0  0
  -14.7702  -26.0508   14.7809 H   0  0  0  0  0  0  0  0  0  0  0  0
  -14.2843  -27.7450   14.5702 H   0  0  0  0  0  0  0  0  0  0  0  0
  -13.0386  -25.7144   12.7947 H   0  0  0  0  0  0  0  0  0  0  0  0
  -10.2940  -25.4930   12.8781 H   0  0  0  0  0  0  0  0  0  0  0  0
   -9.6584  -26.3784   15.3966 H   0  0  0  0  0  0  0  0  0  0  0  0
  1  2  1  0
  2  3  2  0
  3  4  1  0
  4  5  2  0
  5  6  1  0
  6  7  1  0
  7  8  1  0
  7  9  1  0
  9 10  1  0
  9 11  1  0
 11 12  1  0
 12 13  1  0
 13 14  2  0
 13 15  1  0
 15 16  1  0
 16 17  1  0
 17 18  1  0
 18 19  1  0
 19 20  2  0
 20 21  1  0
 21 22  2  0
  6 23  2  0
 23  2  1  0
 22 18  1  0
  1 24  1  0
  1 25  1  0
  1 26  1  0
  4 27  1  0
  5 28  1  0
  8 29  1  0
  8 30  1  0
  8 31  1  0
  9 32  1  0
 10 33  1  0
 10 34  1  0
 10 35  1  0
 11 36  1  0
 11 37  1  0
 12 38  1  0
 15 39  1  0
 15 40  1  0
 16 41  1  0
 16 42  1  0
 17 43  1  0
 17 44  1  0
 19 45  1  0
 20 46  1  0
 21 47  1  0
M  END
>  <Energy>  (334) 
154.4608832868266

>  <compound_id>  (334) 
5070

>  <target_id>  (334) 
1

>  <reference_id>  (334) 
112

>  <inspiration_ids>  (334) 
[54, 112]

>  <energy_score>  (334) 
136.990502395338

>  <distance_score>  (334) 
4.327215787814876

>  <path>  (334) 
/opt/xchem-fragalysis-2/maxwin/BulkDock/SCRATCH/511018/C5070-P112/C5070-P112.minimised.mol

>  <scratch_subdir>  (334) 
/opt/xchem-fragalysis-2/maxwin/BulkDock/SCRATCH/511018/C5070-P112

>  <fragmenstein_runtime>  (334) 
20.18679642677307

>  <fragmenstein_outcome>  (334) 
too moved

>  <fragmenstein_mode>  (334) 
expansion

>  <fragmenstein_error>  (334) 


$$$$
C5071-P54
     RDKit          3D

 47 48  0  0  0  0  0  0  0  0999 V2000
  -13.3304  -22.6355   25.2921 C   0  0  0  0  0  0  0  0  0  0  0  0
  -13.7393  -23.8687   24.5846 C   0  0  0  0  0  0  0  0  0  0  0  0
  -14.1932  -24.8783   25.3250 N   0  0  0  0  0  0  0  0  0  0  0  0
  -14.6289  -25.9163   24.6040 C   0  0  0  0  0  0  0  0  0  0  0  0
  -14.4842  -26.1142   23.1605 C   0  0  0  0  0  0  0  0  0  0  0  0
  -13.7868  -25.2694   22.2728 C   0  0  0  0  0  0  0  0  0  0  0  0
  -13.5646  -25.4214   20.7941 N   0  0  0  0  0  0  0  0  0  0  0  0
  -12.6916  -24.3283   20.4270 C   0  0  0  0  0  0  0  0  0  0  0  0
  -13.7140  -26.4197   19.2870 C   0  0  0  0  0  0  0  0  0  0  0  0
  -12.5538  -27.2315   18.6279 C   0  0  0  0  0  0  0  0  0  0  0  0
  -14.9964  -27.2983   18.8530 C   0  0  0  0  0  0  0  0  0  0  0  0
  -15.2572  -27.3121   17.4125 N   0  0  0  0  0  0  0  0  0  0  0  0
  -15.1113  -26.2900   16.4223 C   0  0  0  0  0  0  0  0  0  0  0  0
  -14.8138  -25.1389   16.5290 O   0  0  0  0  0  0  0  0  0  0  0  0
  -15.4205  -26.8358   15.0315 C   0  0  0  0  0  0  0  0  0  0  0  0
  -14.5066  -26.1876   13.9683 C   0  0  0  0  0  0  0  0  0  0  0  0
  -15.0125  -26.5418   12.5718 C   0  0  0  0  0  0  0  0  0  0  0  0
  -13.1014  -26.5735   14.1042 N   0  0  0  0  0  0  0  0  0  0  0  0
  -12.0169  -25.8668   13.6628 C   0  0  0  0  0  0  0  0  0  0  0  0
  -10.9076  -26.5863   14.0360 C   0  0  0  0  0  0  0  0  0  0  0  0
  -11.4249  -27.7289   14.6680 C   0  0  0  0  0  0  0  0  0  0  0  0
  -12.7612  -27.7383   14.6947 N   0  0  0  0  0  0  0  0  0  0  0  0
  -13.5516  -23.9239   23.2047 N   0  0  0  0  0  0  0  0  0  0  0  0
  -14.2544  -22.0828   25.4603 H   0  0  0  0  0  0  0  0  0  0  0  0
  -12.8427  -22.8669   26.2425 H   0  0  0  0  0  0  0  0  0  0  0  0
  -12.6470  -22.0444   24.6755 H   0  0  0  0  0  0  0  0  0  0  0  0
  -15.2743  -26.5906   25.1678 H   0  0  0  0  0  0  0  0  0  0  0  0
  -15.3813  -26.5525   22.7127 H   0  0  0  0  0  0  0  0  0  0  0  0
  -12.9807  -24.0328   19.4225 H   0  0  0  0  0  0  0  0  0  0  0  0
  -12.6664  -23.3450   20.9402 H   0  0  0  0  0  0  0  0  0  0  0  0
  -11.6897  -24.6683   20.5700 H   0  0  0  0  0  0  0  0  0  0  0  0
  -13.7932  -25.5746   18.5975 H   0  0  0  0  0  0  0  0  0  0  0  0
  -12.7479  -27.3304   17.5533 H   0  0  0  0  0  0  0  0  0  0  0  0
  -12.5151  -28.2607   18.9847 H   0  0  0  0  0  0  0  0  0  0  0  0
  -11.5487  -26.8313   18.6353 H   0  0  0  0  0  0  0  0  0  0  0  0
  -15.9536  -27.1025   19.3199 H   0  0  0  0  0  0  0  0  0  0  0  0
  -14.7962  -28.3524   19.0429 H   0  0  0  0  0  0  0  0  0  0  0  0
  -15.6024  -28.1558   16.9681 H   0  0  0  0  0  0  0  0  0  0  0  0
  -15.3367  -27.9278   14.9976 H   0  0  0  0  0  0  0  0  0  0  0  0
  -16.4690  -26.5852   14.8270 H   0  0  0  0  0  0  0  0  0  0  0  0
  -14.5246  -25.0968   14.0773 H   0  0  0  0  0  0  0  0  0  0  0  0
  -16.0258  -26.1572   12.4156 H   0  0  0  0  0  0  0  0  0  0  0  0
  -14.3700  -26.1249   11.7909 H   0  0  0  0  0  0  0  0  0  0  0  0
  -15.0357  -27.6277   12.4238 H   0  0  0  0  0  0  0  0  0  0  0  0
  -12.1155  -24.9148   13.1622 H   0  0  0  0  0  0  0  0  0  0  0  0
   -9.8723  -26.3174   13.8808 H   0  0  0  0  0  0  0  0  0  0  0  0
  -10.8821  -28.5553   15.1089 H   0  0  0  0  0  0  0  0  0  0  0  0
  1  2  1  0
  2  3  2  0
  3  4  1  0
  4  5  2  0
  5  6  1  0
  6  7  1  0
  7  8  1  0
  7  9  1  0
  9 10  1  0
  9 11  1  0
 11 12  1  0
 12 13  1  0
 13 14  2  0
 13 15  1  0
 15 16  1  0
 16 17  1  0
 16 18  1  0
 18 19  1  0
 19 20  2  0
 20 21  1  0
 21 22  2  0
  6 23  2  0
 23  2  1  0
 22 18  1  0
  1 24  1  0
  1 25  1  0
  1 26  1  0
  4 27  1  0
  5 28  1  0
  8 29  1  0
  8 30  1  0
  8 31  1  0
  9 32  1  0
 10 33  1  0
 10 34  1  0
 10 35  1  0
 11 36  1  0
 11 37  1  0
 12 38  1  0
 15 39  1  0
 15 40  1  0
 16 41  1  0
 17 42  1  0
 17 43  1  0
 17 44  1  0
 19 45  1  0
 20 46  1  0
 21 47  1  0
M  END
>  <Energy>  (335) 
125.38679482088061

>  <compound_id>  (335) 
5071

>  <target_id>  (335) 
1

>  <reference_id>  (335) 
54

>  <inspiration_ids>  (335) 
[54, 112]

>  <energy_score>  (335) 
114.56159806814861

>  <distance_score>  (335) 
5.0403015239613955

>  <path>  (335) 
/opt/xchem-fragalysis-2/maxwin/BulkDock/SCRATCH/511018/C5071-P54/C5071-P54.minimised.mol

>  <scratch_subdir>  (335) 
/opt/xchem-fragalysis-2/maxwin/BulkDock/SCRATCH/511018/C5071-P54

>  <fragmenstein_runtime>  (335) 
20.086593866348267

>  <fragmenstein_outcome>  (335) 
too moved

>  <fragmenstein_mode>  (335) 
expansion

>  <fragmenstein_error>  (335) 


$$$$
C5071-P112
     RDKit          3D

 47 48  0  0  0  0  0  0  0  0999 V2000
  -11.8203  -22.9791   26.5701 C   0  0  0  0  0  0  0  0  0  0  0  0
  -12.6367  -22.9718   25.3035 C   0  0  0  0  0  0  0  0  0  0  0  0
  -13.7069  -23.7447   25.4739 N   0  0  0  0  0  0  0  0  0  0  0  0
  -14.6427  -23.5066   24.5983 C   0  0  0  0  0  0  0  0  0  0  0  0
  -14.3703  -22.7848   23.4555 C   0  0  0  0  0  0  0  0  0  0  0  0
  -13.0879  -22.6801   22.9613 C   0  0  0  0  0  0  0  0  0  0  0  0
  -12.7435  -22.9946   21.2719 N   0  0  0  0  0  0  0  0  0  0  0  0
  -11.4995  -22.1142   21.3136 C   0  0  0  0  0  0  0  0  0  0  0  0
  -12.9035  -24.4826   20.0371 C   0  0  0  0  0  0  0  0  0  0  0  0
  -13.7181  -25.9160   20.0272 C   0  0  0  0  0  0  0  0  0  0  0  0
  -13.6890  -24.4540   18.3223 C   0  0  0  0  0  0  0  0  0  0  0  0
  -13.4659  -25.5407   17.3330 N   0  0  0  0  0  0  0  0  0  0  0  0
  -14.0444  -25.7670   16.0377 C   0  0  0  0  0  0  0  0  0  0  0  0
  -14.7940  -25.0981   15.3910 O   0  0  0  0  0  0  0  0  0  0  0  0
  -13.6267  -27.1267   15.4860 C   0  0  0  0  0  0  0  0  0  0  0  0
  -12.3298  -27.1448   14.6769 C   0  0  0  0  0  0  0  0  0  0  0  0
  -11.1087  -26.6333   15.4273 C   0  0  0  0  0  0  0  0  0  0  0  0
  -12.4302  -26.5488   13.3540 N   0  0  0  0  0  0  0  0  0  0  0  0
  -12.5658  -25.2339   13.0196 C   0  0  0  0  0  0  0  0  0  0  0  0
  -12.4630  -25.1749   11.6510 C   0  0  0  0  0  0  0  0  0  0  0  0
  -12.2724  -26.5059   11.2500 C   0  0  0  0  0  0  0  0  0  0  0  0
  -12.2536  -27.3478   12.2838 N   0  0  0  0  0  0  0  0  0  0  0  0
  -12.2403  -22.4756   24.0279 N   0  0  0  0  0  0  0  0  0  0  0  0
  -10.9422  -23.6178   26.4505 H   0  0  0  0  0  0  0  0  0  0  0  0
  -11.5979  -21.9669   26.9063 H   0  0  0  0  0  0  0  0  0  0  0  0
  -12.3737  -23.4447   27.3854 H   0  0  0  0  0  0  0  0  0  0  0  0
  -15.6617  -23.7043   24.9145 H   0  0  0  0  0  0  0  0  0  0  0  0
  -14.9057  -21.8335   23.6184 H   0  0  0  0  0  0  0  0  0  0  0  0
  -10.6565  -22.3415   20.6869 H   0  0  0  0  0  0  0  0  0  0  0  0
  -11.7283  -21.0810   21.0921 H   0  0  0  0  0  0  0  0  0  0  0  0
  -11.0194  -22.0219   22.2907 H   0  0  0  0  0  0  0  0  0  0  0  0
  -11.8786  -24.8035   20.0772 H   0  0  0  0  0  0  0  0  0  0  0  0
  -14.7032  -26.0038   19.5658 H   0  0  0  0  0  0  0  0  0  0  0  0
  -13.1971  -26.6482   19.3925 H   0  0  0  0  0  0  0  0  0  0  0  0
  -13.8429  -26.3996   20.9677 H   0  0  0  0  0  0  0  0  0  0  0  0
  -13.3888  -23.6064   17.7615 H   0  0  0  0  0  0  0  0  0  0  0  0
  -14.7673  -24.3861   18.2911 H   0  0  0  0  0  0  0  0  0  0  0  0
  -12.9402  -26.3600   17.6066 H   0  0  0  0  0  0  0  0  0  0  0  0
  -13.5514  -27.8394   16.3177 H   0  0  0  0  0  0  0  0  0  0  0  0
  -14.4571  -27.4945   14.8680 H   0  0  0  0  0  0  0  0  0  0  0  0
  -12.1306  -28.2108   14.4889 H   0  0  0  0  0  0  0  0  0  0  0  0
  -11.0084  -27.1264   16.3995 H   0  0  0  0  0  0  0  0  0  0  0  0
  -11.1515  -25.5596   15.5874 H   0  0  0  0  0  0  0  0  0  0  0  0
  -10.1926  -26.8342   14.8597 H   0  0  0  0  0  0  0  0  0  0  0  0
  -12.7291  -24.4585   13.7523 H   0  0  0  0  0  0  0  0  0  0  0  0
  -12.5300  -24.2959   11.0288 H   0  0  0  0  0  0  0  0  0  0  0  0
  -12.1495  -26.8982   10.2485 H   0  0  0  0  0  0  0  0  0  0  0  0
  1  2  1  0
  2  3  2  0
  3  4  1  0
  4  5  2  0
  5  6  1  0
  6  7  1  0
  7  8  1  0
  7  9  1  0
  9 10  1  0
  9 11  1  0
 11 12  1  0
 12 13  1  0
 13 14  2  0
 13 15  1  0
 15 16  1  0
 16 17  1  0
 16 18  1  0
 18 19  1  0
 19 20  2  0
 20 21  1  0
 21 22  2  0
  6 23  2  0
 23  2  1  0
 22 18  1  0
  1 24  1  0
  1 25  1  0
  1 26  1  0
  4 27  1  0
  5 28  1  0
  8 29  1  0
  8 30  1  0
  8 31  1  0
  9 32  1  0
 10 33  1  0
 10 34  1  0
 10 35  1  0
 11 36  1  0
 11 37  1  0
 12 38  1  0
 15 39  1  0
 15 40  1  0
 16 41  1  0
 17 42  1  0
 17 43  1  0
 17 44  1  0
 19 45  1  0
 20 46  1  0
 21 47  1  0
M  END
>  <Energy>  (336) 
275.7178207019744

>  <compound_id>  (336) 
5071

>  <target_id>  (336) 
1

>  <reference_id>  (336) 
112

>  <inspiration_ids>  (336) 
[54, 112]

>  <energy_score>  (336) 
264.8926239492429

>  <distance_score>  (336) 
4.581356751583874

>  <path>  (336) 
/opt/xchem-fragalysis-2/maxwin/BulkDock/SCRATCH/511018/C5071-P112/C5071-P112.minimised.mol

>  <scratch_subdir>  (336) 
/opt/xchem-fragalysis-2/maxwin/BulkDock/SCRATCH/511018/C5071-P112

>  <fragmenstein_runtime>  (336) 
15.570940971374512

>  <fragmenstein_outcome>  (336) 
too moved

>  <fragmenstein_mode>  (336) 
expansion

>  <fragmenstein_error>  (336) 


$$$$
C5072-P54
     RDKit          3D

 43 44  0  0  0  0  0  0  0  0999 V2000
  -12.8192  -24.4541   26.8953 C   0  0  0  0  0  0  0  0  0  0  0  0
  -13.8430  -25.5655   26.6969 C   0  0  0  0  0  0  0  0  0  0  0  0
  -13.6562  -26.3585   25.3859 C   0  0  0  0  0  0  0  0  0  0  0  0
  -14.2110  -25.5988   24.1104 C   0  0  0  0  0  0  0  0  0  0  0  0
  -14.1779  -26.2172   22.6176 O   0  0  0  0  0  0  0  0  0  0  0  0
  -13.6716  -25.6269   21.0762 C   0  0  0  0  0  0  0  0  0  0  0  0
  -13.8647  -26.5970   19.5190 C   0  0  0  0  0  0  0  0  0  0  0  0
  -13.7194  -25.9229   18.1613 C   0  0  0  0  0  0  0  0  0  0  0  0
  -14.6714  -26.4100   17.1383 N   0  0  0  0  0  0  0  0  0  0  0  0
  -14.0429  -26.6042   15.8779 C   0  0  0  0  0  0  0  0  0  0  0  0
  -14.7660  -26.5098   14.7153 C   0  0  0  0  0  0  0  0  0  0  0  0
  -14.0486  -26.6990   13.5466 C   0  0  0  0  0  0  0  0  0  0  0  0
  -14.7034  -26.5765   12.2982 N   0  0  0  0  0  0  0  0  0  0  0  0
  -14.1258  -26.7752   11.0607 C   0  0  0  0  0  0  0  0  0  0  0  0
  -15.0914  -26.5123   10.1236 C   0  0  0  0  0  0  0  0  0  0  0  0
  -16.2257  -26.1718   10.8776 C   0  0  0  0  0  0  0  0  0  0  0  0
  -16.0066  -26.2168   12.1921 N   0  0  0  0  0  0  0  0  0  0  0  0
  -12.7313  -26.9901   13.5064 N   0  0  0  0  0  0  0  0  0  0  0  0
  -12.1303  -27.0943   14.6751 C   0  0  0  0  0  0  0  0  0  0  0  0
  -10.7875  -27.3866   14.6895 N   0  0  0  0  0  0  0  0  0  0  0  0
  -12.7438  -26.9468   15.8438 N   0  0  0  0  0  0  0  0  0  0  0  0
  -12.9503  -23.9936   27.8795 H   0  0  0  0  0  0  0  0  0  0  0  0
  -12.9335  -23.6716   26.1395 H   0  0  0  0  0  0  0  0  0  0  0  0
  -11.7983  -24.8448   26.8375 H   0  0  0  0  0  0  0  0  0  0  0  0
  -14.8560  -25.1502   26.7451 H   0  0  0  0  0  0  0  0  0  0  0  0
  -13.7476  -26.2661   27.5355 H   0  0  0  0  0  0  0  0  0  0  0  0
  -12.5990  -26.6350   25.3397 H   0  0  0  0  0  0  0  0  0  0  0  0
  -14.2051  -27.3009   25.4848 H   0  0  0  0  0  0  0  0  0  0  0  0
  -15.2840  -25.6367   24.3488 H   0  0  0  0  0  0  0  0  0  0  0  0
  -13.8328  -24.5732   24.1100 H   0  0  0  0  0  0  0  0  0  0  0  0
  -14.0746  -24.7073   21.1516 H   0  0  0  0  0  0  0  0  0  0  0  0
  -12.7213  -25.1211   20.9448 H   0  0  0  0  0  0  0  0  0  0  0  0
  -13.1399  -27.4130   19.4918 H   0  0  0  0  0  0  0  0  0  0  0  0
  -14.8374  -27.1191   19.4804 H   0  0  0  0  0  0  0  0  0  0  0  0
  -13.8274  -24.8437   18.2471 H   0  0  0  0  0  0  0  0  0  0  0  0
  -12.7176  -26.1962   17.8507 H   0  0  0  0  0  0  0  0  0  0  0  0
  -15.4418  -25.7550   17.0259 H   0  0  0  0  0  0  0  0  0  0  0  0
  -15.8228  -26.2791   14.7162 H   0  0  0  0  0  0  0  0  0  0  0  0
  -13.0908  -27.0749   10.9717 H   0  0  0  0  0  0  0  0  0  0  0  0
  -14.9946  -26.5625    9.0486 H   0  0  0  0  0  0  0  0  0  0  0  0
  -17.2100  -25.8934   10.5207 H   0  0  0  0  0  0  0  0  0  0  0  0
  -10.4971  -27.8581   13.8471 H   0  0  0  0  0  0  0  0  0  0  0  0
  -10.5052  -27.7824   15.5748 H   0  0  0  0  0  0  0  0  0  0  0  0
  1  2  1  0
  2  3  1  0
  3  4  1  0
  4  5  1  0
  5  6  1  0
  6  7  1  0
  7  8  1  0
  8  9  1  0
  9 10  1  0
 10 11  2  0
 11 12  1  0
 12 13  1  0
 13 14  1  0
 14 15  2  0
 15 16  1  0
 16 17  2  0
 12 18  2  0
 18 19  1  0
 19 20  1  0
 19 21  2  0
 21 10  1  0
 17 13  1  0
  1 22  1  0
  1 23  1  0
  1 24  1  0
  2 25  1  0
  2 26  1  0
  3 27  1  0
  3 28  1  0
  4 29  1  0
  4 30  1  0
  6 31  1  0
  6 32  1  0
  7 33  1  0
  7 34  1  0
  8 35  1  0
  8 36  1  0
  9 37  1  0
 11 38  1  0
 14 39  1  0
 15 40  1  0
 16 41  1  0
 20 42  1  0
 20 43  1  0
M  END
>  <Energy>  (337) 
24.761223034024134

>  <compound_id>  (337) 
5072

>  <target_id>  (337) 
1

>  <reference_id>  (337) 
54

>  <inspiration_ids>  (337) 
[54, 112]

>  <energy_score>  (337) 
39.701946363178436

>  <distance_score>  (337) 
4.550336451747429

>  <path>  (337) 
/opt/xchem-fragalysis-2/maxwin/BulkDock/SCRATCH/511018/C5072-P54/C5072-P54.minimised.mol

>  <scratch_subdir>  (337) 
/opt/xchem-fragalysis-2/maxwin/BulkDock/SCRATCH/511018/C5072-P54

>  <fragmenstein_runtime>  (337) 
9.263864994049072

>  <fragmenstein_outcome>  (337) 
too moved

>  <fragmenstein_mode>  (337) 
expansion

>  <fragmenstein_error>  (337) 


$$$$
C5072-P112
     RDKit          3D

 43 44  0  0  0  0  0  0  0  0999 V2000
  -12.8452  -24.3130   26.0273 C   0  0  0  0  0  0  0  0  0  0  0  0
  -14.1119  -24.3695   25.1402 C   0  0  0  0  0  0  0  0  0  0  0  0
  -14.8225  -25.7435   25.0908 C   0  0  0  0  0  0  0  0  0  0  0  0
  -16.3566  -25.6411   24.9502 C   0  0  0  0  0  0  0  0  0  0  0  0
  -16.9720  -26.8047   24.3417 O   0  0  0  0  0  0  0  0  0  0  0  0
  -16.9265  -26.7695   22.9063 C   0  0  0  0  0  0  0  0  0  0  0  0
  -17.7443  -27.8236   22.1454 C   0  0  0  0  0  0  0  0  0  0  0  0
  -17.3386  -27.9834   20.6413 C   0  0  0  0  0  0  0  0  0  0  0  0
  -17.4757  -26.7420   19.8867 N   0  0  0  0  0  0  0  0  0  0  0  0
  -17.0527  -26.5823   18.5631 C   0  0  0  0  0  0  0  0  0  0  0  0
  -15.7962  -26.9186   18.0957 C   0  0  0  0  0  0  0  0  0  0  0  0
  -15.4489  -26.4277   16.8397 C   0  0  0  0  0  0  0  0  0  0  0  0
  -14.1242  -26.6191   16.3347 N   0  0  0  0  0  0  0  0  0  0  0  0
  -13.6380  -26.1607   15.1233 C   0  0  0  0  0  0  0  0  0  0  0  0
  -12.3202  -26.5372   15.0417 C   0  0  0  0  0  0  0  0  0  0  0  0
  -12.0794  -27.2145   16.2455 C   0  0  0  0  0  0  0  0  0  0  0  0
  -13.1538  -27.2672   17.0382 N   0  0  0  0  0  0  0  0  0  0  0  0
  -16.2956  -25.7055   16.0736 N   0  0  0  0  0  0  0  0  0  0  0  0
  -17.4982  -25.4756   16.5884 C   0  0  0  0  0  0  0  0  0  0  0  0
  -18.3768  -24.7142   15.8469 N   0  0  0  0  0  0  0  0  0  0  0  0
  -17.8987  -25.8719   17.8002 N   0  0  0  0  0  0  0  0  0  0  0  0
  -13.0172  -24.2106   27.0868 H   0  0  0  0  0  0  0  0  0  0  0  0
  -12.2542  -23.4260   25.7729 H   0  0  0  0  0  0  0  0  0  0  0  0
  -12.2354  -25.2167   25.9228 H   0  0  0  0  0  0  0  0  0  0  0  0
  -13.8613  -24.1006   24.1143 H   0  0  0  0  0  0  0  0  0  0  0  0
  -14.7945  -23.5519   25.3843 H   0  0  0  0  0  0  0  0  0  0  0  0
  -14.4326  -26.3049   24.2427 H   0  0  0  0  0  0  0  0  0  0  0  0
  -14.5868  -26.3518   25.9715 H   0  0  0  0  0  0  0  0  0  0  0  0
  -16.7980  -25.5635   25.9487 H   0  0  0  0  0  0  0  0  0  0  0  0
  -16.6613  -24.7404   24.4067 H   0  0  0  0  0  0  0  0  0  0  0  0
  -17.2536  -25.7847   22.5663 H   0  0  0  0  0  0  0  0  0  0  0  0
  -15.8896  -26.9527   22.6738 H   0  0  0  0  0  0  0  0  0  0  0  0
  -17.6351  -28.7933   22.6454 H   0  0  0  0  0  0  0  0  0  0  0  0
  -18.8073  -27.5632   22.2162 H   0  0  0  0  0  0  0  0  0  0  0  0
  -16.3123  -28.3514   20.5834 H   0  0  0  0  0  0  0  0  0  0  0  0
  -17.9816  -28.7487   20.1910 H   0  0  0  0  0  0  0  0  0  0  0  0
  -18.4283  -26.3700   19.8985 H   0  0  0  0  0  0  0  0  0  0  0  0
  -15.0847  -27.4466   18.7160 H   0  0  0  0  0  0  0  0  0  0  0  0
  -14.2789  -25.6173   14.4423 H   0  0  0  0  0  0  0  0  0  0  0  0
  -11.6328  -26.3490   14.2288 H   0  0  0  0  0  0  0  0  0  0  0  0
  -11.1569  -27.6736   16.5764 H   0  0  0  0  0  0  0  0  0  0  0  0
  -17.8679  -24.1198   15.2079 H   0  0  0  0  0  0  0  0  0  0  0  0
  -19.0183  -24.2443   16.4738 H   0  0  0  0  0  0  0  0  0  0  0  0
  1  2  1  0
  2  3  1  0
  3  4  1  0
  4  5  1  0
  5  6  1  0
  6  7  1  0
  7  8  1  0
  8  9  1  0
  9 10  1  0
 10 11  2  0
 11 12  1  0
 12 13  1  0
 13 14  1  0
 14 15  2  0
 15 16  1  0
 16 17  2  0
 12 18  2  0
 18 19  1  0
 19 20  1  0
 19 21  2  0
 21 10  1  0
 17 13  1  0
  1 22  1  0
  1 23  1  0
  1 24  1  0
  2 25  1  0
  2 26  1  0
  3 27  1  0
  3 28  1  0
  4 29  1  0
  4 30  1  0
  6 31  1  0
  6 32  1  0
  7 33  1  0
  7 34  1  0
  8 35  1  0
  8 36  1  0
  9 37  1  0
 11 38  1  0
 14 39  1  0
 15 40  1  0
 16 41  1  0
 20 42  1  0
 20 43  1  0
M  END
>  <Energy>  (338) 
-95.200446102309812

>  <compound_id>  (338) 
5072

>  <target_id>  (338) 
1

>  <reference_id>  (338) 
112

>  <inspiration_ids>  (338) 
[54, 112]

>  <energy_score>  (338) 
-80.25972277315657

>  <distance_score>  (338) 
4.98259506868694

>  <path>  (338) 
/opt/xchem-fragalysis-2/maxwin/BulkDock/SCRATCH/511018/C5072-P112/C5072-P112.minimised.mol

>  <scratch_subdir>  (338) 
/opt/xchem-fragalysis-2/maxwin/BulkDock/SCRATCH/511018/C5072-P112

>  <fragmenstein_runtime>  (338) 
6.792893648147583

>  <fragmenstein_outcome>  (338) 
too moved

>  <fragmenstein_mode>  (338) 
expansion

>  <fragmenstein_error>  (338) 


$$$$
C5073-P54
     RDKit          3D

 40 41  0  0  0  0  0  0  0  0999 V2000
   -5.4217  -23.8162   22.8755 C   0  0  0  0  0  0  0  0  0  0  0  0
   -6.6357  -23.6968   22.0074 C   0  0  0  0  0  0  0  0  0  0  0  0
   -6.7326  -24.4829   20.0937 C   0  0  0  0  0  0  0  0  0  0  0  0
   -6.1443  -25.4124   18.3655 N   0  0  0  0  0  0  0  0  0  0  0  0
   -4.2904  -24.6873   18.6849 C   0  0  0  0  0  0  0  0  0  0  0  0
   -7.4822  -24.9428   16.9756 C   0  0  0  0  0  0  0  0  0  0  0  0
   -7.4810  -24.0012   16.1272 O   0  0  0  0  0  0  0  0  0  0  0  0
   -8.9783  -26.2023   16.5883 C   0  0  0  0  0  0  0  0  0  0  0  0
   -8.8141  -27.5958   16.5785 C   0  0  0  0  0  0  0  0  0  0  0  0
   -9.7049  -28.3692   15.8552 C   0  0  0  0  0  0  0  0  0  0  0  0
  -10.6577  -27.8766   15.0513 N   0  0  0  0  0  0  0  0  0  0  0  0
  -10.6256  -26.5541   14.9038 C   0  0  0  0  0  0  0  0  0  0  0  0
   -9.8180  -25.7204   15.5674 N   0  0  0  0  0  0  0  0  0  0  0  0
   -8.1362  -22.8809   23.0506 N   0  0  0  0  0  0  0  0  0  0  0  0
   -9.3198  -21.9180   22.5811 C   0  0  0  0  0  0  0  0  0  0  0  0
   -9.5224  -21.3876   21.4983 O   0  0  0  0  0  0  0  0  0  0  0  0
  -10.5017  -21.6496   23.5192 C   0  0  0  0  0  0  0  0  0  0  0  0
  -10.9807  -22.4818   24.6468 N   0  0  0  0  0  0  0  0  0  0  0  0
  -12.2730  -22.4757   25.1275 C   0  0  0  0  0  0  0  0  0  0  0  0
  -12.2841  -23.2327   26.2751 C   0  0  0  0  0  0  0  0  0  0  0  0
  -10.9656  -23.6757   26.4140 C   0  0  0  0  0  0  0  0  0  0  0  0
  -10.1935  -23.2869   25.3955 N   0  0  0  0  0  0  0  0  0  0  0  0
   -4.5773  -23.4739   22.2925 H   0  0  0  0  0  0  0  0  0  0  0  0
   -5.4862  -23.1831   23.7604 H   0  0  0  0  0  0  0  0  0  0  0  0
   -5.1524  -24.8393   23.1118 H   0  0  0  0  0  0  0  0  0  0  0  0
   -7.6487  -24.0783   21.8013 H   0  0  0  0  0  0  0  0  0  0  0  0
   -6.8051  -23.5112   20.2719 H   0  0  0  0  0  0  0  0  0  0  0  0
   -7.7391  -24.8447   20.0724 H   0  0  0  0  0  0  0  0  0  0  0  0
   -3.8194  -24.3299   17.7413 H   0  0  0  0  0  0  0  0  0  0  0  0
   -3.7549  -25.6519   18.5787 H   0  0  0  0  0  0  0  0  0  0  0  0
   -3.7077  -23.7053   18.9150 H   0  0  0  0  0  0  0  0  0  0  0  0
   -7.9571  -28.0882   17.0192 H   0  0  0  0  0  0  0  0  0  0  0  0
   -9.6233  -29.4528   15.8616 H   0  0  0  0  0  0  0  0  0  0  0  0
  -11.2997  -26.1109   14.1801 H   0  0  0  0  0  0  0  0  0  0  0  0
   -8.2316  -23.0733   24.0427 H   0  0  0  0  0  0  0  0  0  0  0  0
  -11.3301  -21.8843   22.8192 H   0  0  0  0  0  0  0  0  0  0  0  0
  -10.7214  -20.5842   23.6433 H   0  0  0  0  0  0  0  0  0  0  0  0
  -13.0490  -21.9169   24.6210 H   0  0  0  0  0  0  0  0  0  0  0  0
  -13.1272  -23.4307   26.9176 H   0  0  0  0  0  0  0  0  0  0  0  0
  -10.5381  -24.2894   27.1964 H   0  0  0  0  0  0  0  0  0  0  0  0
  1  2  1  0
  2  3  1  0
  3  4  1  0
  4  5  1  0
  4  6  1  0
  6  7  2  0
  6  8  1  0
  8  9  2  0
  9 10  1  0
 10 11  2  0
 11 12  1  0
 12 13  2  0
  2 14  1  0
 14 15  1  0
 15 16  2  0
 15 17  1  0
 17 18  1  0
 18 19  1  0
 19 20  2  0
 20 21  1  0
 21 22  2  0
 13  8  1  0
 22 18  1  0
  1 23  1  0
  1 24  1  0
  1 25  1  0
  2 26  1  0
  3 27  1  0
  3 28  1  0
  5 29  1  0
  5 30  1  0
  5 31  1  0
  9 32  1  0
 10 33  1  0
 12 34  1  0
 14 35  1  0
 17 36  1  0
 17 37  1  0
 19 38  1  0
 20 39  1  0
 21 40  1  0
M  END
>  <Energy>  (339) 
817.41660518446497

>  <compound_id>  (339) 
5073

>  <target_id>  (339) 
1

>  <reference_id>  (339) 
54

>  <inspiration_ids>  (339) 
[54, 112]

>  <energy_score>  (339) 
754.6913696169886

>  <distance_score>  (339) 
6.696628254459797

>  <path>  (339) 
/opt/xchem-fragalysis-2/maxwin/BulkDock/SCRATCH/511018/C5073-P54/C5073-P54.minimised.mol

>  <scratch_subdir>  (339) 
/opt/xchem-fragalysis-2/maxwin/BulkDock/SCRATCH/511018/C5073-P54

>  <fragmenstein_runtime>  (339) 
12.841187477111816

>  <fragmenstein_outcome>  (339) 
too moved

>  <fragmenstein_mode>  (339) 
expansion

>  <fragmenstein_error>  (339) 


$$$$
C5073-P112
     RDKit          3D

 40 41  0  0  0  0  0  0  0  0999 V2000
   -5.7175  -24.2718   22.4503 C   0  0  0  0  0  0  0  0  0  0  0  0
   -7.0285  -23.8467   21.4133 C   0  0  0  0  0  0  0  0  0  0  0  0
   -7.2957  -24.8214   19.6517 C   0  0  0  0  0  0  0  0  0  0  0  0
   -6.0509  -25.3069   18.2457 N   0  0  0  0  0  0  0  0  0  0  0  0
   -7.4668  -24.6351   17.1340 C   0  0  0  0  0  0  0  0  0  0  0  0
   -5.5459  -26.7185   18.4478 C   0  0  0  0  0  0  0  0  0  0  0  0
   -5.9731  -27.7711   18.0328 O   0  0  0  0  0  0  0  0  0  0  0  0
   -4.2639  -26.7823   19.1906 C   0  0  0  0  0  0  0  0  0  0  0  0
   -3.3305  -25.8048   18.9028 C   0  0  0  0  0  0  0  0  0  0  0  0
   -2.0235  -26.1507   19.0841 C   0  0  0  0  0  0  0  0  0  0  0  0
   -1.6367  -27.3650   19.4947 N   0  0  0  0  0  0  0  0  0  0  0  0
   -2.6191  -28.2441   19.7164 C   0  0  0  0  0  0  0  0  0  0  0  0
   -3.9246  -28.0104   19.6177 N   0  0  0  0  0  0  0  0  0  0  0  0
   -8.2771  -23.7088   22.5183 N   0  0  0  0  0  0  0  0  0  0  0  0
   -8.6811  -23.1010   23.3420 C   0  0  0  0  0  0  0  0  0  0  0  0
   -7.7268  -21.8353   23.3362 O   0  0  0  0  0  0  0  0  0  0  0  0
  -10.1144  -23.6330   24.5730 C   0  0  0  0  0  0  0  0  0  0  0  0
  -10.9625  -23.5833   25.9438 N   0  0  0  0  0  0  0  0  0  0  0  0
  -12.1115  -22.8740   26.1425 C   0  0  0  0  0  0  0  0  0  0  0  0
  -11.9694  -22.4941   27.4527 C   0  0  0  0  0  0  0  0  0  0  0  0
  -11.0194  -23.3631   27.9688 C   0  0  0  0  0  0  0  0  0  0  0  0
  -10.5114  -24.1796   27.0567 N   0  0  0  0  0  0  0  0  0  0  0  0
   -5.7783  -23.6228   23.3118 H   0  0  0  0  0  0  0  0  0  0  0  0
   -4.8044  -24.2901   21.8854 H   0  0  0  0  0  0  0  0  0  0  0  0
   -5.6684  -25.2690   22.8502 H   0  0  0  0  0  0  0  0  0  0  0  0
   -6.5414  -23.3812   20.7449 H   0  0  0  0  0  0  0  0  0  0  0  0
   -6.9387  -25.8800   19.6515 H   0  0  0  0  0  0  0  0  0  0  0  0
   -8.2873  -24.9332   20.0128 H   0  0  0  0  0  0  0  0  0  0  0  0
   -7.0050  -25.6937   16.4740 H   0  0  0  0  0  0  0  0  0  0  0  0
   -7.3618  -23.7723   16.3972 H   0  0  0  0  0  0  0  0  0  0  0  0
   -8.4356  -25.1399   16.7737 H   0  0  0  0  0  0  0  0  0  0  0  0
   -3.5690  -24.8665   18.4239 H   0  0  0  0  0  0  0  0  0  0  0  0
   -1.2230  -25.4570   18.8475 H   0  0  0  0  0  0  0  0  0  0  0  0
   -2.3192  -29.2439   20.0110 H   0  0  0  0  0  0  0  0  0  0  0  0
   -8.2020  -24.4788   21.9695 H   0  0  0  0  0  0  0  0  0  0  0  0
   -9.2964  -24.2501   25.0914 H   0  0  0  0  0  0  0  0  0  0  0  0
  -10.4455  -24.6579   24.6828 H   0  0  0  0  0  0  0  0  0  0  0  0
  -12.7065  -22.4912   25.3265 H   0  0  0  0  0  0  0  0  0  0  0  0
  -12.4741  -21.7175   27.9946 H   0  0  0  0  0  0  0  0  0  0  0  0
  -10.6634  -23.4057   28.9635 H   0  0  0  0  0  0  0  0  0  0  0  0
  1  2  1  0
  2  3  1  0
  3  4  1  0
  4  5  1  0
  4  6  1  0
  6  7  2  0
  6  8  1  0
  8  9  2  0
  9 10  1  0
 10 11  2  0
 11 12  1  0
 12 13  2  0
  2 14  1  0
 14 15  1  0
 15 16  2  0
 15 17  1  0
 17 18  1  0
 18 19  1  0
 19 20  2  0
 20 21  1  0
 21 22  2  0
 13  8  1  0
 22 18  1  0
  1 23  1  0
  1 24  1  0
  1 25  1  0
  2 26  1  0
  3 27  1  0
  3 28  1  0
  5 29  1  0
  5 30  1  0
  5 31  1  0
  9 32  1  0
 10 33  1  0
 12 34  1  0
 14 35  1  0
 17 36  1  0
 17 37  1  0
 19 38  1  0
 20 39  1  0
 21 40  1  0
M  END
>  <Energy>  (340) 
822.29478404846145

>  <compound_id>  (340) 
5073

>  <target_id>  (340) 
1

>  <reference_id>  (340) 
112

>  <inspiration_ids>  (340) 
[54, 112]

>  <energy_score>  (340) 
759.5695484809962

>  <distance_score>  (340) 
9.073550041488607

>  <path>  (340) 
/opt/xchem-fragalysis-2/maxwin/BulkDock/SCRATCH/511018/C5073-P112/C5073-P112.minimised.mol

>  <scratch_subdir>  (340) 
/opt/xchem-fragalysis-2/maxwin/BulkDock/SCRATCH/511018/C5073-P112

>  <fragmenstein_runtime>  (340) 
24.67938232421875

>  <fragmenstein_outcome>  (340) 
too moved

>  <fragmenstein_mode>  (340) 
expansion

>  <fragmenstein_error>  (340) 


$$$$
C5074-P54
     RDKit          3D

 44 45  0  0  0  0  0  0  0  0999 V2000
  -10.3844  -24.4574   10.7129 C   0  0  0  0  0  0  0  0  0  0  0  0
   -9.8635  -23.4426   11.5780 O   0  0  0  0  0  0  0  0  0  0  0  0
   -9.8483  -23.8610   12.8894 C   0  0  0  0  0  0  0  0  0  0  0  0
  -10.6487  -24.8953   13.1536 N   0  0  0  0  0  0  0  0  0  0  0  0
  -10.4282  -25.4188   14.3212 C   0  0  0  0  0  0  0  0  0  0  0  0
   -9.5574  -24.8271   15.2257 C   0  0  0  0  0  0  0  0  0  0  0  0
   -8.8385  -23.5653   15.0926 C   0  0  0  0  0  0  0  0  0  0  0  0
   -9.5516  -22.5603   15.9018 C   0  0  0  0  0  0  0  0  0  0  0  0
  -10.4694  -22.1247   15.2532 O   0  0  0  0  0  0  0  0  0  0  0  0
   -9.6315  -21.9174   17.5565 N   0  0  0  0  0  0  0  0  0  0  0  0
   -8.8544  -20.6915   17.5969 C   0  0  0  0  0  0  0  0  0  0  0  0
   -9.0009  -20.3874   18.5437 C   0  0  0  0  0  0  0  0  0  0  0  0
  -10.1078  -20.9635   20.1314 C   0  0  0  0  0  0  0  0  0  0  0  0
  -11.6030  -19.9812   19.8436 C   0  0  0  0  0  0  0  0  0  0  0  0
  -10.7430  -21.1241   21.4888 N   0  0  0  0  0  0  0  0  0  0  0  0
  -10.2130  -21.5242   22.7114 C   0  0  0  0  0  0  0  0  0  0  0  0
   -9.0903  -21.7726   23.0326 O   0  0  0  0  0  0  0  0  0  0  0  0
  -11.3277  -21.5428   23.7761 C   0  0  0  0  0  0  0  0  0  0  0  0
  -12.7244  -21.8836   23.5211 N   0  0  0  0  0  0  0  0  0  0  0  0
  -13.5631  -22.4033   24.4824 C   0  0  0  0  0  0  0  0  0  0  0  0
  -14.8068  -21.8791   24.2164 C   0  0  0  0  0  0  0  0  0  0  0  0
  -14.6375  -21.1594   23.0224 C   0  0  0  0  0  0  0  0  0  0  0  0
  -13.3951  -21.2544   22.5444 N   0  0  0  0  0  0  0  0  0  0  0  0
   -8.9317  -23.2659   13.7419 N   0  0  0  0  0  0  0  0  0  0  0  0
  -10.3556  -24.0782    9.6870 H   0  0  0  0  0  0  0  0  0  0  0  0
   -9.7812  -25.3709   10.7622 H   0  0  0  0  0  0  0  0  0  0  0  0
  -11.4257  -24.7089   10.9268 H   0  0  0  0  0  0  0  0  0  0  0  0
  -10.8982  -26.3743   14.5245 H   0  0  0  0  0  0  0  0  0  0  0  0
   -9.2272  -25.6368   15.8657 H   0  0  0  0  0  0  0  0  0  0  0  0
   -9.6293  -20.3992   16.8310 H   0  0  0  0  0  0  0  0  0  0  0  0
   -8.4654  -19.6698   17.0404 H   0  0  0  0  0  0  0  0  0  0  0  0
   -7.9060  -21.1808   17.2399 H   0  0  0  0  0  0  0  0  0  0  0  0
   -9.7552  -19.4266   18.4426 H   0  0  0  0  0  0  0  0  0  0  0  0
   -8.0751  -19.6952   18.9212 H   0  0  0  0  0  0  0  0  0  0  0  0
  -10.1067  -22.0375   20.0012 H   0  0  0  0  0  0  0  0  0  0  0  0
  -11.5213  -19.2856   19.0115 H   0  0  0  0  0  0  0  0  0  0  0  0
  -12.4810  -20.6329   19.7174 H   0  0  0  0  0  0  0  0  0  0  0  0
  -11.8577  -19.3252   20.6880 H   0  0  0  0  0  0  0  0  0  0  0  0
  -11.7639  -21.0865   21.5675 H   0  0  0  0  0  0  0  0  0  0  0  0
  -11.0195  -22.2390   24.5643 H   0  0  0  0  0  0  0  0  0  0  0  0
  -11.4322  -20.5073   24.1198 H   0  0  0  0  0  0  0  0  0  0  0  0
  -13.1855  -22.9357   25.3430 H   0  0  0  0  0  0  0  0  0  0  0  0
  -15.7013  -21.9604   24.8174 H   0  0  0  0  0  0  0  0  0  0  0  0
  -15.3702  -20.5812   22.4729 H   0  0  0  0  0  0  0  0  0  0  0  0
  1  2  1  0
  2  3  1  0
  3  4  2  0
  4  5  1  0
  5  6  2  0
  6  7  1  0
  7  8  1  0
  8  9  2  0
  8 10  1  0
 10 11  1  0
 10 12  1  0
 12 13  1  0
 13 14  1  0
 13 15  1  0
 15 16  1  0
 16 17  2  0
 16 18  1  0
 18 19  1  0
 19 20  1  0
 20 21  2  0
 21 22  1  0
 22 23  2  0
  7 24  2  0
 24  3  1  0
 23 19  1  0
  1 25  1  0
  1 26  1  0
  1 27  1  0
  5 28  1  0
  6 29  1  0
 11 30  1  0
 11 31  1  0
 11 32  1  0
 12 33  1  0
 12 34  1  0
 13 35  1  0
 14 36  1  0
 14 37  1  0
 14 38  1  0
 15 39  1  0
 18 40  1  0
 18 41  1  0
 20 42  1  0
 21 43  1  0
 22 44  1  0
M  END
>  <Energy>  (341) 
872.34831587164774

>  <compound_id>  (341) 
5074

>  <target_id>  (341) 
1

>  <reference_id>  (341) 
54

>  <inspiration_ids>  (341) 
[54, 112]

>  <energy_score>  (341) 
815.3210986064684

>  <distance_score>  (341) 
7.315598707193948

>  <path>  (341) 
/opt/xchem-fragalysis-2/maxwin/BulkDock/SCRATCH/511018/C5074-P54/C5074-P54.minimised.mol

>  <scratch_subdir>  (341) 
/opt/xchem-fragalysis-2/maxwin/BulkDock/SCRATCH/511018/C5074-P54

>  <fragmenstein_runtime>  (341) 
16.228955030441284

>  <fragmenstein_outcome>  (341) 
too moved

>  <fragmenstein_mode>  (341) 
expansion

>  <fragmenstein_error>  (341) 


$$$$
C5074-P112
     RDKit          3D

 44 45  0  0  0  0  0  0  0  0999 V2000
  -11.5411  -26.1780   13.8843 C   0  0  0  0  0  0  0  0  0  0  0  0
  -10.3735  -25.7641   14.5966 O   0  0  0  0  0  0  0  0  0  0  0  0
   -9.9888  -24.4967   14.2111 C   0  0  0  0  0  0  0  0  0  0  0  0
  -10.1127  -24.1793   12.9307 N   0  0  0  0  0  0  0  0  0  0  0  0
  -10.0481  -22.8764   12.7104 C   0  0  0  0  0  0  0  0  0  0  0  0
   -9.8668  -21.9251   13.6983 C   0  0  0  0  0  0  0  0  0  0  0  0
   -9.6627  -22.3004   15.0254 C   0  0  0  0  0  0  0  0  0  0  0  0
  -10.5134  -21.2373   16.3117 C   0  0  0  0  0  0  0  0  0  0  0  0
  -12.3360  -21.3499   16.8760 O   0  0  0  0  0  0  0  0  0  0  0  0
   -9.6671  -19.7613   17.1260 N   0  0  0  0  0  0  0  0  0  0  0  0
   -9.7935  -18.1904   16.2126 C   0  0  0  0  0  0  0  0  0  0  0  0
   -8.9314  -19.6727   18.3962 C   0  0  0  0  0  0  0  0  0  0  0  0
   -8.6123  -18.2621   18.9815 C   0  0  0  0  0  0  0  0  0  0  0  0
   -9.7816  -17.3157   19.2947 C   0  0  0  0  0  0  0  0  0  0  0  0
   -7.3310  -17.6304   19.1585 N   0  0  0  0  0  0  0  0  0  0  0  0
   -6.8938  -16.2908   18.8811 C   0  0  0  0  0  0  0  0  0  0  0  0
   -7.4593  -15.3771   18.3533 O   0  0  0  0  0  0  0  0  0  0  0  0
   -5.5026  -16.1080   19.4990 C   0  0  0  0  0  0  0  0  0  0  0  0
   -5.6809  -16.2341   20.9539 N   0  0  0  0  0  0  0  0  0  0  0  0
   -6.2027  -15.2766   21.7853 C   0  0  0  0  0  0  0  0  0  0  0  0
   -6.6658  -15.9347   22.8974 C   0  0  0  0  0  0  0  0  0  0  0  0
   -6.3555  -17.2789   22.6606 C   0  0  0  0  0  0  0  0  0  0  0  0
   -5.6738  -17.4666   21.5264 N   0  0  0  0  0  0  0  0  0  0  0  0
   -9.6672  -23.6429   15.2195 N   0  0  0  0  0  0  0  0  0  0  0  0
  -11.2934  -26.4481   12.8522 H   0  0  0  0  0  0  0  0  0  0  0  0
  -11.9286  -27.0741   14.3786 H   0  0  0  0  0  0  0  0  0  0  0  0
  -12.3277  -25.4151   13.9126 H   0  0  0  0  0  0  0  0  0  0  0  0
  -10.2905  -22.5837   11.6973 H   0  0  0  0  0  0  0  0  0  0  0  0
  -10.2218  -20.9330   13.4524 H   0  0  0  0  0  0  0  0  0  0  0  0
  -10.3458  -18.3340   15.2908 H   0  0  0  0  0  0  0  0  0  0  0  0
  -10.5112  -17.6110   16.8051 H   0  0  0  0  0  0  0  0  0  0  0  0
   -8.9303  -17.5000   16.2441 H   0  0  0  0  0  0  0  0  0  0  0  0
   -7.9675  -20.0597   18.0926 H   0  0  0  0  0  0  0  0  0  0  0  0
   -9.2615  -20.3624   19.1552 H   0  0  0  0  0  0  0  0  0  0  0  0
   -8.3738  -18.7098   19.9268 H   0  0  0  0  0  0  0  0  0  0  0  0
   -9.6051  -16.7419   20.2135 H   0  0  0  0  0  0  0  0  0  0  0  0
  -10.7327  -17.8463   19.3937 H   0  0  0  0  0  0  0  0  0  0  0  0
   -9.8927  -16.5635   18.5088 H   0  0  0  0  0  0  0  0  0  0  0  0
   -6.6066  -18.1129   19.7007 H   0  0  0  0  0  0  0  0  0  0  0  0
   -4.7963  -16.8710   19.1604 H   0  0  0  0  0  0  0  0  0  0  0  0
   -5.1103  -15.1085   19.2926 H   0  0  0  0  0  0  0  0  0  0  0  0
   -6.2732  -14.2412   21.4798 H   0  0  0  0  0  0  0  0  0  0  0  0
   -7.2003  -15.5063   23.7330 H   0  0  0  0  0  0  0  0  0  0  0  0
   -6.5854  -18.1406   23.2651 H   0  0  0  0  0  0  0  0  0  0  0  0
  1  2  1  0
  2  3  1  0
  3  4  2  0
  4  5  1  0
  5  6  2  0
  6  7  1  0
  7  8  1  0
  8  9  2  0
  8 10  1  0
 10 11  1  0
 10 12  1  0
 12 13  1  0
 13 14  1  0
 13 15  1  0
 15 16  1  0
 16 17  2  0
 16 18  1  0
 18 19  1  0
 19 20  1  0
 20 21  2  0
 21 22  1  0
 22 23  2  0
  7 24  2  0
 24  3  1  0
 23 19  1  0
  1 25  1  0
  1 26  1  0
  1 27  1  0
  5 28  1  0
  6 29  1  0
 11 30  1  0
 11 31  1  0
 11 32  1  0
 12 33  1  0
 12 34  1  0
 13 35  1  0
 14 36  1  0
 14 37  1  0
 14 38  1  0
 15 39  1  0
 18 40  1  0
 18 41  1  0
 20 42  1  0
 21 43  1  0
 22 44  1  0
M  END
>  <Energy>  (342) 
538.84649828918975

>  <compound_id>  (342) 
5074

>  <target_id>  (342) 
1

>  <reference_id>  (342) 
112

>  <inspiration_ids>  (342) 
[54, 112]

>  <energy_score>  (342) 
481.8192810240079

>  <distance_score>  (342) 
10.197428522413592

>  <path>  (342) 
/opt/xchem-fragalysis-2/maxwin/BulkDock/SCRATCH/511018/C5074-P112/C5074-P112.minimised.mol

>  <scratch_subdir>  (342) 
/opt/xchem-fragalysis-2/maxwin/BulkDock/SCRATCH/511018/C5074-P112

>  <fragmenstein_runtime>  (342) 
45.54633283615112

>  <fragmenstein_outcome>  (342) 
too moved

>  <fragmenstein_mode>  (342) 
expansion

>  <fragmenstein_error>  (342) 


$$$$
C5075-P54
     RDKit          3D

 43 44  0  0  0  0  0  0  0  0999 V2000
  -15.4698  -26.0378   15.2360 C   0  0  0  0  0  0  0  0  0  0  0  0
  -14.8046  -26.7091   16.4005 C   0  0  0  0  0  0  0  0  0  0  0  0
  -13.4660  -26.8362   16.3500 N   0  0  0  0  0  0  0  0  0  0  0  0
  -12.8785  -27.4809   17.3724 C   0  0  0  0  0  0  0  0  0  0  0  0
  -13.5737  -28.0099   18.4317 C   0  0  0  0  0  0  0  0  0  0  0  0
  -14.9433  -27.8375   18.4013 C   0  0  0  0  0  0  0  0  0  0  0  0
  -15.8150  -28.4467   19.4982 C   0  0  0  0  0  0  0  0  0  0  0  0
  -16.9024  -28.9295   19.2133 O   0  0  0  0  0  0  0  0  0  0  0  0
  -15.2328  -28.4948   20.7864 N   0  0  0  0  0  0  0  0  0  0  0  0
  -15.6568  -27.3026   21.4875 C   0  0  0  0  0  0  0  0  0  0  0  0
  -15.2512  -27.4287   22.3237 C   0  0  0  0  0  0  0  0  0  0  0  0
  -16.1487  -27.8244   23.7315 C   0  0  0  0  0  0  0  0  0  0  0  0
  -15.8733  -29.2430   24.2255 C   0  0  0  0  0  0  0  0  0  0  0  0
  -15.7773  -26.9176   24.8221 N   0  0  0  0  0  0  0  0  0  0  0  0
  -14.4982  -26.6699   25.4579 C   0  0  0  0  0  0  0  0  0  0  0  0
  -13.4029  -27.0870   25.1993 O   0  0  0  0  0  0  0  0  0  0  0  0
  -14.7073  -25.7507   26.6730 C   0  0  0  0  0  0  0  0  0  0  0  0
  -13.4875  -25.0669   27.0760 N   0  0  0  0  0  0  0  0  0  0  0  0
  -12.7226  -25.3120   28.1817 C   0  0  0  0  0  0  0  0  0  0  0  0
  -11.7429  -24.3462   28.1910 C   0  0  0  0  0  0  0  0  0  0  0  0
  -12.0076  -23.5600   27.0563 C   0  0  0  0  0  0  0  0  0  0  0  0
  -13.0686  -23.9990   26.3738 N   0  0  0  0  0  0  0  0  0  0  0  0
  -15.5797  -27.1850   17.3953 N   0  0  0  0  0  0  0  0  0  0  0  0
  -14.8174  -25.2688   14.8111 H   0  0  0  0  0  0  0  0  0  0  0  0
  -15.6945  -26.7785   14.4634 H   0  0  0  0  0  0  0  0  0  0  0  0
  -16.4024  -25.5601   15.5509 H   0  0  0  0  0  0  0  0  0  0  0  0
  -11.7971  -27.5673   17.3094 H   0  0  0  0  0  0  0  0  0  0  0  0
  -13.0713  -28.5496   19.2203 H   0  0  0  0  0  0  0  0  0  0  0  0
  -16.8027  -27.6806   21.3867 H   0  0  0  0  0  0  0  0  0  0  0  0
  -15.0328  -26.6303   20.6934 H   0  0  0  0  0  0  0  0  0  0  0  0
  -16.3512  -26.4345   21.0428 H   0  0  0  0  0  0  0  0  0  0  0  0
  -14.3801  -28.1047   22.7166 H   0  0  0  0  0  0  0  0  0  0  0  0
  -14.4761  -26.5289   22.5381 H   0  0  0  0  0  0  0  0  0  0  0  0
  -17.2176  -27.6760   23.5399 H   0  0  0  0  0  0  0  0  0  0  0  0
  -16.4659  -29.4630   25.1205 H   0  0  0  0  0  0  0  0  0  0  0  0
  -14.8205  -29.4002   24.4834 H   0  0  0  0  0  0  0  0  0  0  0  0
  -16.1444  -29.9715   23.4548 H   0  0  0  0  0  0  0  0  0  0  0  0
  -16.4840  -26.3298   25.2574 H   0  0  0  0  0  0  0  0  0  0  0  0
  -15.0552  -26.3546   27.5172 H   0  0  0  0  0  0  0  0  0  0  0  0
  -15.4468  -24.9717   26.4580 H   0  0  0  0  0  0  0  0  0  0  0  0
  -12.9345  -26.1311   28.8542 H   0  0  0  0  0  0  0  0  0  0  0  0
  -10.9559  -24.2165   28.9207 H   0  0  0  0  0  0  0  0  0  0  0  0
  -11.4830  -22.6806   26.7013 H   0  0  0  0  0  0  0  0  0  0  0  0
  1  2  1  0
  2  3  2  0
  3  4  1  0
  4  5  2  0
  5  6  1  0
  6  7  1  0
  7  8  2  0
  7  9  1  0
  9 10  1  0
  9 11  1  0
 11 12  1  0
 12 13  1  0
 12 14  1  0
 14 15  1  0
 15 16  2  0
 15 17  1  0
 17 18  1  0
 18 19  1  0
 19 20  2  0
 20 21  1  0
 21 22  2  0
  6 23  2  0
 23  2  1  0
 22 18  1  0
  1 24  1  0
  1 25  1  0
  1 26  1  0
  4 27  1  0
  5 28  1  0
 10 29  1  0
 10 30  1  0
 10 31  1  0
 11 32  1  0
 11 33  1  0
 12 34  1  0
 13 35  1  0
 13 36  1  0
 13 37  1  0
 14 38  1  0
 17 39  1  0
 17 40  1  0
 19 41  1  0
 20 42  1  0
 21 43  1  0
M  END
>  <Energy>  (343) 
610.43122682697265

>  <compound_id>  (343) 
5075

>  <target_id>  (343) 
1

>  <reference_id>  (343) 
54

>  <inspiration_ids>  (343) 
[54, 112]

>  <energy_score>  (343) 
542.4995311113139

>  <distance_score>  (343) 
7.713017221250896

>  <path>  (343) 
/opt/xchem-fragalysis-2/maxwin/BulkDock/SCRATCH/511018/C5075-P54/C5075-P54.minimised.mol

>  <scratch_subdir>  (343) 
/opt/xchem-fragalysis-2/maxwin/BulkDock/SCRATCH/511018/C5075-P54

>  <fragmenstein_runtime>  (343) 
23.630781888961792

>  <fragmenstein_outcome>  (343) 
too moved

>  <fragmenstein_mode>  (343) 
expansion

>  <fragmenstein_error>  (343) 


$$$$
C5075-P112
     RDKit          3D

 43 44  0  0  0  0  0  0  0  0999 V2000
   -4.4437  -26.7462   19.4454 C   0  0  0  0  0  0  0  0  0  0  0  0
   -3.3646  -27.7783   19.4766 C   0  0  0  0  0  0  0  0  0  0  0  0
   -3.6243  -28.8753   18.7447 N   0  0  0  0  0  0  0  0  0  0  0  0
   -2.7392  -29.8688   18.8381 C   0  0  0  0  0  0  0  0  0  0  0  0
   -1.6211  -29.8085   19.6396 C   0  0  0  0  0  0  0  0  0  0  0  0
   -1.4133  -28.6519   20.3816 C   0  0  0  0  0  0  0  0  0  0  0  0
   -0.0454  -28.5218   21.0935 C   0  0  0  0  0  0  0  0  0  0  0  0
    0.8096  -29.3218   20.7189 O   0  0  0  0  0  0  0  0  0  0  0  0
    0.2360  -27.4980   22.0142 N   0  0  0  0  0  0  0  0  0  0  0  0
    0.2111  -27.3492   23.3775 C   0  0  0  0  0  0  0  0  0  0  0  0
   -0.1210  -28.1925   23.7522 C   0  0  0  0  0  0  0  0  0  0  0  0
    0.4264  -28.0052   25.4901 C   0  0  0  0  0  0  0  0  0  0  0  0
   -0.4470  -28.8517   26.4375 C   0  0  0  0  0  0  0  0  0  0  0  0
    0.6293  -26.6695   26.0816 N   0  0  0  0  0  0  0  0  0  0  0  0
   -0.3172  -25.7415   26.7012 C   0  0  0  0  0  0  0  0  0  0  0  0
   -1.5080  -25.8005   26.8115 O   0  0  0  0  0  0  0  0  0  0  0  0
    0.4669  -24.5924   27.3678 C   0  0  0  0  0  0  0  0  0  0  0  0
   -0.3426  -23.4684   27.8504 N   0  0  0  0  0  0  0  0  0  0  0  0
   -0.3249  -22.1904   27.3414 C   0  0  0  0  0  0  0  0  0  0  0  0
   -1.1102  -21.4230   28.1672 C   0  0  0  0  0  0  0  0  0  0  0  0
   -1.4856  -22.2975   29.1948 C   0  0  0  0  0  0  0  0  0  0  0  0
   -1.0224  -23.5383   29.0177 N   0  0  0  0  0  0  0  0  0  0  0  0
   -2.2958  -27.6195   20.3167 N   0  0  0  0  0  0  0  0  0  0  0  0
   -4.0716  -25.8292   19.9032 H   0  0  0  0  0  0  0  0  0  0  0  0
   -4.7669  -26.5667   18.4193 H   0  0  0  0  0  0  0  0  0  0  0  0
   -5.2882  -27.1177   20.0240 H   0  0  0  0  0  0  0  0  0  0  0  0
   -2.9487  -30.7414   18.2271 H   0  0  0  0  0  0  0  0  0  0  0  0
   -0.9097  -30.6255   19.6480 H   0  0  0  0  0  0  0  0  0  0  0  0
    0.6280  -26.2682   23.2314 H   0  0  0  0  0  0  0  0  0  0  0  0
    1.4186  -27.3183   23.6402 H   0  0  0  0  0  0  0  0  0  0  0  0
   -0.6230  -26.5085   23.6951 H   0  0  0  0  0  0  0  0  0  0  0  0
    0.3189  -29.2666   23.5901 H   0  0  0  0  0  0  0  0  0  0  0  0
   -1.1934  -28.6136   23.7372 H   0  0  0  0  0  0  0  0  0  0  0  0
    1.4281  -28.4617   25.4885 H   0  0  0  0  0  0  0  0  0  0  0  0
   -1.3912  -28.3780   26.6970 H   0  0  0  0  0  0  0  0  0  0  0  0
    0.0855  -29.0177   27.3813 H   0  0  0  0  0  0  0  0  0  0  0  0
   -0.6536  -29.8311   25.9956 H   0  0  0  0  0  0  0  0  0  0  0  0
    1.5574  -26.2584   26.0984 H   0  0  0  0  0  0  0  0  0  0  0  0
    1.1902  -24.1817   26.6548 H   0  0  0  0  0  0  0  0  0  0  0  0
    1.0072  -24.9868   28.2355 H   0  0  0  0  0  0  0  0  0  0  0  0
    0.2216  -21.9440   26.4413 H   0  0  0  0  0  0  0  0  0  0  0  0
   -1.3302  -20.3702   28.0665 H   0  0  0  0  0  0  0  0  0  0  0  0
   -2.0508  -22.0567   30.0817 H   0  0  0  0  0  0  0  0  0  0  0  0
  1  2  1  0
  2  3  2  0
  3  4  1  0
  4  5  2  0
  5  6  1  0
  6  7  1  0
  7  8  2  0
  7  9  1  0
  9 10  1  0
  9 11  1  0
 11 12  1  0
 12 13  1  0
 12 14  1  0
 14 15  1  0
 15 16  2  0
 15 17  1  0
 17 18  1  0
 18 19  1  0
 19 20  2  0
 20 21  1  0
 21 22  2  0
  6 23  2  0
 23  2  1  0
 22 18  1  0
  1 24  1  0
  1 25  1  0
  1 26  1  0
  4 27  1  0
  5 28  1  0
 10 29  1  0
 10 30  1  0
 10 31  1  0
 11 32  1  0
 11 33  1  0
 12 34  1  0
 13 35  1  0
 13 36  1  0
 13 37  1  0
 14 38  1  0
 17 39  1  0
 17 40  1  0
 19 41  1  0
 20 42  1  0
 21 43  1  0
M  END
>  <Energy>  (344) 
631.25321077401622

>  <compound_id>  (344) 
5075

>  <target_id>  (344) 
1

>  <reference_id>  (344) 
112

>  <inspiration_ids>  (344) 
[54, 112]

>  <energy_score>  (344) 
563.3215150583628

>  <distance_score>  (344) 
12.231772221474433

>  <path>  (344) 
/opt/xchem-fragalysis-2/maxwin/BulkDock/SCRATCH/511018/C5075-P112/C5075-P112.minimised.mol

>  <scratch_subdir>  (344) 
/opt/xchem-fragalysis-2/maxwin/BulkDock/SCRATCH/511018/C5075-P112

>  <fragmenstein_runtime>  (344) 
20.39206862449646

>  <fragmenstein_outcome>  (344) 
too moved

>  <fragmenstein_mode>  (344) 
expansion

>  <fragmenstein_error>  (344) 


$$$$
C5076-P54
     RDKit          3D

 47 49  0  0  0  0  0  0  0  0999 V2000
   -8.9448  -24.9423   20.7511 C   0  0  0  0  0  0  0  0  0  0  0  0
   -7.5163  -24.7402   19.3316 C   0  0  0  0  0  0  0  0  0  0  0  0
   -8.0668  -24.9297   17.1581 C   0  0  0  0  0  0  0  0  0  0  0  0
   -9.5458  -24.9973   15.7359 N   0  0  0  0  0  0  0  0  0  0  0  0
   -9.0045  -23.7215   15.3849 C   0  0  0  0  0  0  0  0  0  0  0  0
   -9.5055  -26.2839   15.0233 C   0  0  0  0  0  0  0  0  0  0  0  0
   -8.9249  -26.6079   14.0160 O   0  0  0  0  0  0  0  0  0  0  0  0
  -10.4237  -27.2852   15.6241 C   0  0  0  0  0  0  0  0  0  0  0  0
  -10.0474  -28.5858   15.7974 C   0  0  0  0  0  0  0  0  0  0  0  0
  -11.0965  -29.4372   16.0249 C   0  0  0  0  0  0  0  0  0  0  0  0
  -12.3974  -29.0631   16.0254 N   0  0  0  0  0  0  0  0  0  0  0  0
  -12.6746  -27.7656   15.7937 C   0  0  0  0  0  0  0  0  0  0  0  0
  -14.1163  -27.3263   15.6497 C   0  0  0  0  0  0  0  0  0  0  0  0
  -14.8290  -27.5126   14.3252 C   0  0  0  0  0  0  0  0  0  0  0  0
  -14.4925  -26.1308   14.7938 C   0  0  0  0  0  0  0  0  0  0  0  0
  -11.7112  -26.8567   15.6418 N   0  0  0  0  0  0  0  0  0  0  0  0
   -7.8243  -23.7865   21.0654 N   0  0  0  0  0  0  0  0  0  0  0  0
   -9.0404  -22.3318   21.4392 C   0  0  0  0  0  0  0  0  0  0  0  0
   -9.7812  -21.7070   20.6850 O   0  0  0  0  0  0  0  0  0  0  0  0
   -9.1011  -22.0467   22.9545 C   0  0  0  0  0  0  0  0  0  0  0  0
  -10.4880  -21.9221   23.4305 N   0  0  0  0  0  0  0  0  0  0  0  0
  -11.5029  -21.1633   22.9189 C   0  0  0  0  0  0  0  0  0  0  0  0
  -12.5982  -21.3632   23.7180 C   0  0  0  0  0  0  0  0  0  0  0  0
  -12.1468  -22.2100   24.7386 C   0  0  0  0  0  0  0  0  0  0  0  0
  -10.8818  -22.6037   24.5554 N   0  0  0  0  0  0  0  0  0  0  0  0
   -9.6983  -24.2476   20.2214 H   0  0  0  0  0  0  0  0  0  0  0  0
  -10.2000  -24.9226   20.7495 H   0  0  0  0  0  0  0  0  0  0  0  0
   -9.2857  -25.8304   21.2719 H   0  0  0  0  0  0  0  0  0  0  0  0
   -6.5595  -25.2728   19.4833 H   0  0  0  0  0  0  0  0  0  0  0  0
   -7.3594  -24.3652   16.6016 H   0  0  0  0  0  0  0  0  0  0  0  0
   -8.4288  -26.0356   16.9288 H   0  0  0  0  0  0  0  0  0  0  0  0
   -9.6270  -22.9808   15.8757 H   0  0  0  0  0  0  0  0  0  0  0  0
   -9.4032  -23.6094   14.3583 H   0  0  0  0  0  0  0  0  0  0  0  0
   -8.0159  -23.3850   15.2054 H   0  0  0  0  0  0  0  0  0  0  0  0
   -9.0233  -28.9140   15.7057 H   0  0  0  0  0  0  0  0  0  0  0  0
  -10.9274  -30.4993   16.1802 H   0  0  0  0  0  0  0  0  0  0  0  0
  -14.7161  -27.4754   16.5427 H   0  0  0  0  0  0  0  0  0  0  0  0
  -14.2653  -27.9157   13.4910 H   0  0  0  0  0  0  0  0  0  0  0  0
  -15.8665  -27.8235   14.3513 H   0  0  0  0  0  0  0  0  0  0  0  0
  -15.2963  -25.4940   15.1435 H   0  0  0  0  0  0  0  0  0  0  0  0
  -13.7064  -25.5969   14.2699 H   0  0  0  0  0  0  0  0  0  0  0  0
   -7.2979  -24.0306   21.8647 H   0  0  0  0  0  0  0  0  0  0  0  0
   -8.5880  -21.1313   23.0157 H   0  0  0  0  0  0  0  0  0  0  0  0
   -8.5773  -22.7680   23.5743 H   0  0  0  0  0  0  0  0  0  0  0  0
  -11.3726  -20.5500   22.0373 H   0  0  0  0  0  0  0  0  0  0  0  0
  -13.5697  -20.9017   23.6129 H   0  0  0  0  0  0  0  0  0  0  0  0
  -12.6916  -22.5660   25.6024 H   0  0  0  0  0  0  0  0  0  0  0  0
  1  2  1  0
  2  3  1  0
  3  4  1  0
  4  5  1  0
  4  6  1  0
  6  7  2  0
  6  8  1  0
  8  9  2  0
  9 10  1  0
 10 11  2  0
 11 12  1  0
 12 13  1  0
 13 14  1  0
 14 15  1  0
 12 16  2  0
  2 17  1  0
 17 18  1  0
 18 19  2  0
 18 20  1  0
 20 21  1  0
 21 22  1  0
 22 23  2  0
 23 24  1  0
 24 25  2  0
 16  8  1  0
 25 21  1  0
 15 13  1  0
  1 26  1  0
  1 27  1  0
  1 28  1  0
  2 29  1  0
  3 30  1  0
  3 31  1  0
  5 32  1  0
  5 33  1  0
  5 34  1  0
  9 35  1  0
 10 36  1  0
 13 37  1  0
 14 38  1  0
 14 39  1  0
 15 40  1  0
 15 41  1  0
 17 42  1  0
 20 43  1  0
 20 44  1  0
 22 45  1  0
 23 46  1  0
 24 47  1  0
M  END
>  <Energy>  (345) 
872.35975313027882

>  <compound_id>  (345) 
5076

>  <target_id>  (345) 
1

>  <reference_id>  (345) 
54

>  <inspiration_ids>  (345) 
[54, 112]

>  <energy_score>  (345) 
784.4412593905116

>  <distance_score>  (345) 
7.154213244385299

>  <path>  (345) 
/opt/xchem-fragalysis-2/maxwin/BulkDock/SCRATCH/511018/C5076-P54/C5076-P54.minimised.mol

>  <scratch_subdir>  (345) 
/opt/xchem-fragalysis-2/maxwin/BulkDock/SCRATCH/511018/C5076-P54

>  <fragmenstein_runtime>  (345) 
22.093056201934814

>  <fragmenstein_outcome>  (345) 
too moved

>  <fragmenstein_mode>  (345) 
expansion

>  <fragmenstein_error>  (345) 


$$$$
C5076-P112
     RDKit          3D

 47 49  0  0  0  0  0  0  0  0999 V2000
   -7.4041  -23.3624   24.2873 C   0  0  0  0  0  0  0  0  0  0  0  0
   -8.7797  -23.1850   23.4986 C   0  0  0  0  0  0  0  0  0  0  0  0
   -8.2682  -23.8436   21.6388 C   0  0  0  0  0  0  0  0  0  0  0  0
   -9.5227  -25.2091   20.9784 N   0  0  0  0  0  0  0  0  0  0  0  0
   -7.8794  -24.9879   20.0393 C   0  0  0  0  0  0  0  0  0  0  0  0
  -11.3186  -25.0992   20.3443 C   0  0  0  0  0  0  0  0  0  0  0  0
  -11.2744  -24.9712   19.3120 O   0  0  0  0  0  0  0  0  0  0  0  0
  -12.6861  -24.9931   20.6814 C   0  0  0  0  0  0  0  0  0  0  0  0
  -13.5104  -26.2830   19.8551 C   0  0  0  0  0  0  0  0  0  0  0  0
  -14.7696  -26.4332   19.3212 C   0  0  0  0  0  0  0  0  0  0  0  0
  -15.3095  -25.3245   18.9453 N   0  0  0  0  0  0  0  0  0  0  0  0
  -14.3471  -24.3913   18.7852 C   0  0  0  0  0  0  0  0  0  0  0  0
  -14.0863  -24.3192   17.2324 C   0  0  0  0  0  0  0  0  0  0  0  0
  -13.8154  -25.5382   16.3606 C   0  0  0  0  0  0  0  0  0  0  0  0
  -15.1144  -24.8123   16.2138 C   0  0  0  0  0  0  0  0  0  0  0  0
  -13.3195  -24.0064   19.8334 N   0  0  0  0  0  0  0  0  0  0  0  0
   -9.8157  -24.0782   24.8302 N   0  0  0  0  0  0  0  0  0  0  0  0
  -11.1580  -23.7005   25.4945 C   0  0  0  0  0  0  0  0  0  0  0  0
  -11.9208  -22.7819   25.2663 O   0  0  0  0  0  0  0  0  0  0  0  0
  -11.4306  -24.6216   26.6641 C   0  0  0  0  0  0  0  0  0  0  0  0
  -12.3740  -25.6771   26.3680 N   0  0  0  0  0  0  0  0  0  0  0  0
  -12.2605  -27.0009   26.6870 C   0  0  0  0  0  0  0  0  0  0  0  0
  -13.4860  -27.5565   26.4003 C   0  0  0  0  0  0  0  0  0  0  0  0
  -14.2371  -26.5407   25.8156 C   0  0  0  0  0  0  0  0  0  0  0  0
  -13.5719  -25.3925   25.8288 N   0  0  0  0  0  0  0  0  0  0  0  0
   -7.7299  -24.2287   24.7665 H   0  0  0  0  0  0  0  0  0  0  0  0
   -7.1322  -23.1063   25.3431 H   0  0  0  0  0  0  0  0  0  0  0  0
   -6.4789  -23.4079   23.6849 H   0  0  0  0  0  0  0  0  0  0  0  0
   -9.2375  -22.2117   23.3281 H   0  0  0  0  0  0  0  0  0  0  0  0
   -7.2538  -23.6535   21.3438 H   0  0  0  0  0  0  0  0  0  0  0  0
   -7.3533  -24.1996   22.0495 H   0  0  0  0  0  0  0  0  0  0  0  0
   -7.1487  -24.2548   20.1072 H   0  0  0  0  0  0  0  0  0  0  0  0
   -7.8488  -24.6163   19.0661 H   0  0  0  0  0  0  0  0  0  0  0  0
   -7.0564  -25.8365   19.6183 H   0  0  0  0  0  0  0  0  0  0  0  0
  -12.8943  -27.0887   19.3990 H   0  0  0  0  0  0  0  0  0  0  0  0
  -15.2108  -27.3635   19.0014 H   0  0  0  0  0  0  0  0  0  0  0  0
  -13.6462  -23.4020   16.9368 H   0  0  0  0  0  0  0  0  0  0  0  0
  -13.0995  -25.4501   15.5531 H   0  0  0  0  0  0  0  0  0  0  0  0
  -13.8325  -26.5272   16.7964 H   0  0  0  0  0  0  0  0  0  0  0  0
  -16.0190  -25.2920   16.5664 H   0  0  0  0  0  0  0  0  0  0  0  0
  -15.2628  -24.2111   15.3245 H   0  0  0  0  0  0  0  0  0  0  0  0
   -9.4059  -24.8562   25.3240 H   0  0  0  0  0  0  0  0  0  0  0  0
  -10.5176  -25.0612   27.0611 H   0  0  0  0  0  0  0  0  0  0  0  0
  -11.8564  -23.9920   27.4507 H   0  0  0  0  0  0  0  0  0  0  0  0
  -11.3815  -27.4061   27.1680 H   0  0  0  0  0  0  0  0  0  0  0  0
  -13.8112  -28.5641   26.5928 H   0  0  0  0  0  0  0  0  0  0  0  0
  -15.2457  -26.5636   25.4195 H   0  0  0  0  0  0  0  0  0  0  0  0
  1  2  1  0
  2  3  1  0
  3  4  1  0
  4  5  1  0
  4  6  1  0
  6  7  2  0
  6  8  1  0
  8  9  2  0
  9 10  1  0
 10 11  2  0
 11 12  1  0
 12 13  1  0
 13 14  1  0
 14 15  1  0
 12 16  2  0
  2 17  1  0
 17 18  1  0
 18 19  2  0
 18 20  1  0
 20 21  1  0
 21 22  1  0
 22 23  2  0
 23 24  1  0
 24 25  2  0
 16  8  1  0
 25 21  1  0
 15 13  1  0
  1 26  1  0
  1 27  1  0
  1 28  1  0
  2 29  1  0
  3 30  1  0
  3 31  1  0
  5 32  1  0
  5 33  1  0
  5 34  1  0
  9 35  1  0
 10 36  1  0
 13 37  1  0
 14 38  1  0
 14 39  1  0
 15 40  1  0
 15 41  1  0
 17 42  1  0
 20 43  1  0
 20 44  1  0
 22 45  1  0
 23 46  1  0
 24 47  1  0
M  END
>  <Energy>  (346) 
955.04103998021981

>  <compound_id>  (346) 
5076

>  <target_id>  (346) 
1

>  <reference_id>  (346) 
112

>  <inspiration_ids>  (346) 
[54, 112]

>  <energy_score>  (346) 
867.1225462404582

>  <distance_score>  (346) 
6.539542808546494

>  <path>  (346) 
/opt/xchem-fragalysis-2/maxwin/BulkDock/SCRATCH/511018/C5076-P112/C5076-P112.minimised.mol

>  <scratch_subdir>  (346) 
/opt/xchem-fragalysis-2/maxwin/BulkDock/SCRATCH/511018/C5076-P112

>  <fragmenstein_runtime>  (346) 
20.892495155334473

>  <fragmenstein_outcome>  (346) 
too moved

>  <fragmenstein_mode>  (346) 
expansion

>  <fragmenstein_error>  (346) 


$$$$
C5077-P54
     RDKit          3D

 44 45  0  0  0  0  0  0  0  0999 V2000
  -10.0770  -26.3093   15.1671 C   0  0  0  0  0  0  0  0  0  0  0  0
   -9.6895  -25.3370   14.2205 O   0  0  0  0  0  0  0  0  0  0  0  0
   -9.5973  -24.0114   14.5117 C   0  0  0  0  0  0  0  0  0  0  0  0
   -9.2146  -23.2897   15.7898 C   0  0  0  0  0  0  0  0  0  0  0  0
   -9.1103  -21.8081   16.8456 C   0  0  0  0  0  0  0  0  0  0  0  0
   -7.1467  -21.8768   17.6411 C   0  0  0  0  0  0  0  0  0  0  0  0
   -6.1934  -21.1176   17.4913 O   0  0  0  0  0  0  0  0  0  0  0  0
   -6.9476  -23.5529   18.6489 N   0  0  0  0  0  0  0  0  0  0  0  0
   -6.6226  -24.5448   17.9542 C   0  0  0  0  0  0  0  0  0  0  0  0
   -7.2689  -23.7331   20.7441 C   0  0  0  0  0  0  0  0  0  0  0  0
   -8.8960  -22.3773   21.4223 C   0  0  0  0  0  0  0  0  0  0  0  0
   -8.3725  -22.3442   23.1992 C   0  0  0  0  0  0  0  0  0  0  0  0
  -10.3182  -21.8566   22.1772 N   0  0  0  0  0  0  0  0  0  0  0  0
  -11.6344  -21.6508   21.6661 C   0  0  0  0  0  0  0  0  0  0  0  0
  -12.0660  -21.7527   20.5574 O   0  0  0  0  0  0  0  0  0  0  0  0
  -12.5215  -21.1227   22.8144 C   0  0  0  0  0  0  0  0  0  0  0  0
  -12.7038  -22.0118   23.9635 N   0  0  0  0  0  0  0  0  0  0  0  0
  -13.8951  -22.4642   24.4633 C   0  0  0  0  0  0  0  0  0  0  0  0
  -13.6098  -23.1504   25.6202 C   0  0  0  0  0  0  0  0  0  0  0  0
  -12.2303  -22.9625   25.8069 C   0  0  0  0  0  0  0  0  0  0  0  0
  -11.6601  -22.3368   24.7708 N   0  0  0  0  0  0  0  0  0  0  0  0
  -10.0685  -21.5510   15.7899 N   0  0  0  0  0  0  0  0  0  0  0  0
  -10.4598  -22.2413   14.2865 C   0  0  0  0  0  0  0  0  0  0  0  0
  -10.1851  -23.3292   13.6165 N   0  0  0  0  0  0  0  0  0  0  0  0
  -11.0253  -26.0746   15.6433 H   0  0  0  0  0  0  0  0  0  0  0  0
   -9.3086  -26.5131   15.9105 H   0  0  0  0  0  0  0  0  0  0  0  0
  -10.2298  -27.2464   14.6212 H   0  0  0  0  0  0  0  0  0  0  0  0
  -10.0002  -23.8076   16.2722 H   0  0  0  0  0  0  0  0  0  0  0  0
   -7.3643  -24.7915   17.1985 H   0  0  0  0  0  0  0  0  0  0  0  0
   -6.0047  -25.3004   18.5359 H   0  0  0  0  0  0  0  0  0  0  0  0
   -6.2835  -23.6223   17.4728 H   0  0  0  0  0  0  0  0  0  0  0  0
   -6.3959  -23.6435   21.4585 H   0  0  0  0  0  0  0  0  0  0  0  0
   -7.9071  -24.6412   20.6576 H   0  0  0  0  0  0  0  0  0  0  0  0
   -8.9792  -21.4551   20.8064 H   0  0  0  0  0  0  0  0  0  0  0  0
   -9.0342  -22.8954   23.8674 H   0  0  0  0  0  0  0  0  0  0  0  0
   -8.4154  -21.2999   23.3279 H   0  0  0  0  0  0  0  0  0  0  0  0
   -7.3304  -22.5952   23.4506 H   0  0  0  0  0  0  0  0  0  0  0  0
  -10.3379  -21.7585   23.1884 H   0  0  0  0  0  0  0  0  0  0  0  0
  -12.0635  -20.2241   23.2259 H   0  0  0  0  0  0  0  0  0  0  0  0
  -13.5071  -20.8532   22.4277 H   0  0  0  0  0  0  0  0  0  0  0  0
  -14.8279  -22.2169   23.9806 H   0  0  0  0  0  0  0  0  0  0  0  0
  -14.3170  -23.6314   26.2795 H   0  0  0  0  0  0  0  0  0  0  0  0
  -11.6104  -23.2780   26.6351 H   0  0  0  0  0  0  0  0  0  0  0  0
  -11.2204  -21.6635   13.7393 H   0  0  0  0  0  0  0  0  0  0  0  0
  1  2  1  0
  2  3  1  0
  3  4  2  0
  4  5  1  0
  5  6  1  0
  6  7  2  0
  6  8  1  0
  8  9  1  0
  8 10  1  0
 10 11  1  0
 11 12  1  0
 11 13  1  0
 13 14  1  0
 14 15  2  0
 14 16  1  0
 16 17  1  0
 17 18  1  0
 18 19  2  0
 19 20  1  0
 20 21  2  0
  5 22  2  0
 22 23  1  0
 23 24  2  0
 24  3  1  0
 21 17  1  0
  1 25  1  0
  1 26  1  0
  1 27  1  0
  4 28  1  0
  9 29  1  0
  9 30  1  0
  9 31  1  0
 10 32  1  0
 10 33  1  0
 11 34  1  0
 12 35  1  0
 12 36  1  0
 12 37  1  0
 13 38  1  0
 16 39  1  0
 16 40  1  0
 18 41  1  0
 19 42  1  0
 20 43  1  0
 23 44  1  0
M  END
>  <Energy>  (347) 
968.54048227705573

>  <compound_id>  (347) 
5077

>  <target_id>  (347) 
1

>  <reference_id>  (347) 
54

>  <inspiration_ids>  (347) 
[54, 112]

>  <energy_score>  (347) 
860.2008377854613

>  <distance_score>  (347) 
7.136628046238127

>  <path>  (347) 
/opt/xchem-fragalysis-2/maxwin/BulkDock/SCRATCH/511018/C5077-P54/C5077-P54.minimised.mol

>  <scratch_subdir>  (347) 
/opt/xchem-fragalysis-2/maxwin/BulkDock/SCRATCH/511018/C5077-P54

>  <fragmenstein_runtime>  (347) 
17.589425086975098

>  <fragmenstein_outcome>  (347) 
too moved

>  <fragmenstein_mode>  (347) 
expansion

>  <fragmenstein_error>  (347) 


$$$$
C5077-P112
     RDKit          3D

 44 45  0  0  0  0  0  0  0  0999 V2000
   -7.0790  -30.3721   12.2766 C   0  0  0  0  0  0  0  0  0  0  0  0
   -8.0221  -29.6256   13.0393 O   0  0  0  0  0  0  0  0  0  0  0  0
   -7.4340  -28.8350   14.0067 C   0  0  0  0  0  0  0  0  0  0  0  0
   -8.2728  -28.0593   14.7515 C   0  0  0  0  0  0  0  0  0  0  0  0
   -7.6647  -27.2624   15.7080 C   0  0  0  0  0  0  0  0  0  0  0  0
   -8.5989  -26.3895   16.5083 C   0  0  0  0  0  0  0  0  0  0  0  0
   -9.7525  -26.8560   16.5985 O   0  0  0  0  0  0  0  0  0  0  0  0
   -8.2543  -24.7105   17.2066 N   0  0  0  0  0  0  0  0  0  0  0  0
   -8.5759  -23.3739   15.8425 C   0  0  0  0  0  0  0  0  0  0  0  0
   -7.6199  -24.6408   19.3568 C   0  0  0  0  0  0  0  0  0  0  0  0
   -7.7969  -24.0879   21.5534 C   0  0  0  0  0  0  0  0  0  0  0  0
   -6.0800  -24.1608   22.5212 C   0  0  0  0  0  0  0  0  0  0  0  0
   -8.5089  -23.4538   23.4780 N   0  0  0  0  0  0  0  0  0  0  0  0
   -9.2777  -24.4793   25.0238 C   0  0  0  0  0  0  0  0  0  0  0  0
   -9.5638  -25.6883   25.0848 O   0  0  0  0  0  0  0  0  0  0  0  0
   -9.4984  -23.8535   26.4930 C   0  0  0  0  0  0  0  0  0  0  0  0
  -10.8199  -23.7887   27.0539 N   0  0  0  0  0  0  0  0  0  0  0  0
  -11.9346  -24.2796   26.4787 C   0  0  0  0  0  0  0  0  0  0  0  0
  -12.6894  -23.1480   26.4280 C   0  0  0  0  0  0  0  0  0  0  0  0
  -12.1387  -22.3324   27.4530 C   0  0  0  0  0  0  0  0  0  0  0  0
  -11.0330  -22.8484   27.9629 N   0  0  0  0  0  0  0  0  0  0  0  0
   -6.3377  -27.2478   15.9299 N   0  0  0  0  0  0  0  0  0  0  0  0
   -5.6292  -28.0617   15.1461 C   0  0  0  0  0  0  0  0  0  0  0  0
   -6.1056  -28.8540   14.1744 N   0  0  0  0  0  0  0  0  0  0  0  0
   -7.6361  -30.9555   11.5371 H   0  0  0  0  0  0  0  0  0  0  0  0
   -6.5266  -31.0766   12.9081 H   0  0  0  0  0  0  0  0  0  0  0  0
   -6.3956  -29.7106   11.7328 H   0  0  0  0  0  0  0  0  0  0  0  0
   -9.3409  -28.0635   14.5857 H   0  0  0  0  0  0  0  0  0  0  0  0
   -9.1309  -23.9600   15.0788 H   0  0  0  0  0  0  0  0  0  0  0  0
   -7.7695  -22.8012   15.4265 H   0  0  0  0  0  0  0  0  0  0  0  0
   -9.4089  -22.6949   16.0670 H   0  0  0  0  0  0  0  0  0  0  0  0
   -8.4431  -24.9446   20.0313 H   0  0  0  0  0  0  0  0  0  0  0  0
   -6.8355  -25.4858   19.3964 H   0  0  0  0  0  0  0  0  0  0  0  0
   -6.9866  -23.6069   21.1314 H   0  0  0  0  0  0  0  0  0  0  0  0
   -5.7912  -25.1001   22.9790 H   0  0  0  0  0  0  0  0  0  0  0  0
   -5.2195  -24.0393   21.8864 H   0  0  0  0  0  0  0  0  0  0  0  0
   -6.1226  -23.4013   23.3014 H   0  0  0  0  0  0  0  0  0  0  0  0
   -8.4575  -22.4792   23.6838 H   0  0  0  0  0  0  0  0  0  0  0  0
   -8.6530  -23.5103   27.1135 H   0  0  0  0  0  0  0  0  0  0  0  0
   -9.4455  -24.7961   27.0083 H   0  0  0  0  0  0  0  0  0  0  0  0
  -11.9803  -25.2451   26.0032 H   0  0  0  0  0  0  0  0  0  0  0  0
  -13.5827  -23.0192   25.8370 H   0  0  0  0  0  0  0  0  0  0  0  0
  -12.4777  -21.4258   27.9089 H   0  0  0  0  0  0  0  0  0  0  0  0
   -4.5564  -28.0789   15.3073 H   0  0  0  0  0  0  0  0  0  0  0  0
  1  2  1  0
  2  3  1  0
  3  4  2  0
  4  5  1  0
  5  6  1  0
  6  7  2  0
  6  8  1  0
  8  9  1  0
  8 10  1  0
 10 11  1  0
 11 12  1  0
 11 13  1  0
 13 14  1  0
 14 15  2  0
 14 16  1  0
 16 17  1  0
 17 18  1  0
 18 19  2  0
 19 20  1  0
 20 21  2  0
  5 22  2  0
 22 23  1  0
 23 24  2  0
 24  3  1  0
 21 17  1  0
  1 25  1  0
  1 26  1  0
  1 27  1  0
  4 28  1  0
  9 29  1  0
  9 30  1  0
  9 31  1  0
 10 32  1  0
 10 33  1  0
 11 34  1  0
 12 35  1  0
 12 36  1  0
 12 37  1  0
 13 38  1  0
 16 39  1  0
 16 40  1  0
 18 41  1  0
 19 42  1  0
 20 43  1  0
 23 44  1  0
M  END
>  <Energy>  (348) 
1124.3737957482549

>  <compound_id>  (348) 
5077

>  <target_id>  (348) 
1

>  <reference_id>  (348) 
112

>  <inspiration_ids>  (348) 
[54, 112]

>  <energy_score>  (348) 
1016.0341512566556

>  <distance_score>  (348) 
7.029720586849838

>  <path>  (348) 
/opt/xchem-fragalysis-2/maxwin/BulkDock/SCRATCH/511018/C5077-P112/C5077-P112.minimised.mol

>  <scratch_subdir>  (348) 
/opt/xchem-fragalysis-2/maxwin/BulkDock/SCRATCH/511018/C5077-P112

>  <fragmenstein_runtime>  (348) 
18.83247423171997

>  <fragmenstein_outcome>  (348) 
too moved

>  <fragmenstein_mode>  (348) 
expansion

>  <fragmenstein_error>  (348) 


$$$$
C5081-P54
     RDKit          3D

 34 36  0  0  0  0  0  0  0  0999 V2000
  -18.8518  -25.3951   23.3322 O   0  0  0  0  0  0  0  0  0  0  0  0
  -18.0058  -26.2599   23.5451 C   0  0  0  0  0  0  0  0  0  0  0  0
  -18.1384  -27.6476   22.9108 C   0  0  0  0  0  0  0  0  0  0  0  0
  -18.0455  -27.7065   21.4479 N   0  0  0  0  0  0  0  0  0  0  0  0
  -18.8319  -27.0712   20.5224 C   0  0  0  0  0  0  0  0  0  0  0  0
  -18.3780  -27.4589   19.2799 C   0  0  0  0  0  0  0  0  0  0  0  0
  -17.3529  -28.3775   19.5471 C   0  0  0  0  0  0  0  0  0  0  0  0
  -17.1798  -28.5726   20.8587 N   0  0  0  0  0  0  0  0  0  0  0  0
  -16.9008  -26.0525   24.3955 N   0  0  0  0  0  0  0  0  0  0  0  0
  -17.3346  -26.5090   25.8141 C   0  0  0  0  0  0  0  0  0  0  0  0
  -18.2623  -25.5279   26.6858 C   0  0  0  0  0  0  0  0  0  0  0  0
  -16.9880  -25.1262   27.1727 C   0  0  0  0  0  0  0  0  0  0  0  0
  -16.5231  -26.2635   26.1696 C   0  0  0  0  0  0  0  0  0  0  0  0
  -14.9168  -25.5361   26.1833 C   0  0  0  0  0  0  0  0  0  0  0  0
  -14.0142  -26.0594   27.0503 N   0  0  0  0  0  0  0  0  0  0  0  0
  -12.9025  -25.3269   27.2738 C   0  0  0  0  0  0  0  0  0  0  0  0
  -12.6612  -24.1092   26.6869 C   0  0  0  0  0  0  0  0  0  0  0  0
  -13.6287  -23.6725   25.8139 C   0  0  0  0  0  0  0  0  0  0  0  0
  -14.7535  -24.3617   25.5407 N   0  0  0  0  0  0  0  0  0  0  0  0
  -19.1261  -28.0463   23.1703 H   0  0  0  0  0  0  0  0  0  0  0  0
  -17.3987  -28.3266   23.3339 H   0  0  0  0  0  0  0  0  0  0  0  0
  -19.6082  -26.3789   20.8215 H   0  0  0  0  0  0  0  0  0  0  0  0
  -18.7452  -27.1238   18.3204 H   0  0  0  0  0  0  0  0  0  0  0  0
  -16.7378  -28.9263   18.8458 H   0  0  0  0  0  0  0  0  0  0  0  0
  -17.4678  -27.7505   25.8873 H   0  0  0  0  0  0  0  0  0  0  0  0
  -18.3968  -26.8165   25.4562 H   0  0  0  0  0  0  0  0  0  0  0  0
  -18.8116  -24.7823   26.1039 H   0  0  0  0  0  0  0  0  0  0  0  0
  -18.8780  -26.0477   27.4268 H   0  0  0  0  0  0  0  0  0  0  0  0
  -16.7619  -24.0872   26.9208 H   0  0  0  0  0  0  0  0  0  0  0  0
  -16.7993  -25.3672   28.2232 H   0  0  0  0  0  0  0  0  0  0  0  0
  -15.9048  -27.2525   26.5554 H   0  0  0  0  0  0  0  0  0  0  0  0
  -12.1942  -25.7589   27.9750 H   0  0  0  0  0  0  0  0  0  0  0  0
  -11.7725  -23.5279   26.8913 H   0  0  0  0  0  0  0  0  0  0  0  0
  -13.5305  -22.7205   25.2961 H   0  0  0  0  0  0  0  0  0  0  0  0
  1  2  2  0
  2  3  1  0
  3  4  1  0
  4  5  1  0
  5  6  2  0
  6  7  1  0
  7  8  2  0
  2  9  1  0
  9 10  1  0
 10 11  1  0
 11 12  1  0
 12 13  1  0
 13 14  1  0
 14 15  2  0
 15 16  1  0
 16 17  2  0
 17 18  1  0
 18 19  2  0
  8  4  1  0
 13  9  1  0
 19 14  1  0
  3 20  1  0
  3 21  1  0
  5 22  1  0
  6 23  1  0
  7 24  1  0
 10 25  1  0
 10 26  1  0
 11 27  1  0
 11 28  1  0
 12 29  1  0
 12 30  1  0
 13 31  1  0
 16 32  1  0
 17 33  1  0
 18 34  1  0
M  END
>  <Energy>  (349) 
587.44183880774528

>  <compound_id>  (349) 
5081

>  <target_id>  (349) 
1

>  <reference_id>  (349) 
54

>  <inspiration_ids>  (349) 
[54, 112]

>  <energy_score>  (349) 
513.039539301255

>  <distance_score>  (349) 
8.624029238219858

>  <path>  (349) 
/opt/xchem-fragalysis-2/maxwin/BulkDock/SCRATCH/511018/C5081-P54/C5081-P54.minimised.mol

>  <scratch_subdir>  (349) 
/opt/xchem-fragalysis-2/maxwin/BulkDock/SCRATCH/511018/C5081-P54

>  <fragmenstein_runtime>  (349) 
11.040719985961914

>  <fragmenstein_outcome>  (349) 
too moved

>  <fragmenstein_mode>  (349) 
expansion

>  <fragmenstein_error>  (349) 


$$$$
C5081-P112
     RDKit          3D

 34 36  0  0  0  0  0  0  0  0999 V2000
  -11.8144  -23.3793   26.5280 O   0  0  0  0  0  0  0  0  0  0  0  0
  -12.8499  -23.9016   26.1512 C   0  0  0  0  0  0  0  0  0  0  0  0
  -13.7817  -23.3472   25.0326 C   0  0  0  0  0  0  0  0  0  0  0  0
  -13.1342  -22.4364   24.1050 N   0  0  0  0  0  0  0  0  0  0  0  0
  -12.1925  -21.5039   24.3393 C   0  0  0  0  0  0  0  0  0  0  0  0
  -11.4563  -21.3939   23.1917 C   0  0  0  0  0  0  0  0  0  0  0  0
  -12.1573  -22.1081   22.2549 C   0  0  0  0  0  0  0  0  0  0  0  0
  -13.2558  -22.6457   22.8029 N   0  0  0  0  0  0  0  0  0  0  0  0
  -13.4161  -25.0529   26.7567 N   0  0  0  0  0  0  0  0  0  0  0  0
  -12.9067  -26.1547   26.0972 C   0  0  0  0  0  0  0  0  0  0  0  0
  -11.4305  -26.5714   26.5839 C   0  0  0  0  0  0  0  0  0  0  0  0
  -12.1344  -27.5377   27.3600 C   0  0  0  0  0  0  0  0  0  0  0  0
  -13.2827  -26.9276   26.5334 C   0  0  0  0  0  0  0  0  0  0  0  0
  -14.7497  -27.3216   27.2525 C   0  0  0  0  0  0  0  0  0  0  0  0
  -15.6156  -27.9293   26.4217 N   0  0  0  0  0  0  0  0  0  0  0  0
  -16.9265  -27.7417   26.6600 C   0  0  0  0  0  0  0  0  0  0  0  0
  -17.4140  -26.9517   27.6685 C   0  0  0  0  0  0  0  0  0  0  0  0
  -16.4672  -26.3879   28.4798 C   0  0  0  0  0  0  0  0  0  0  0  0
  -15.1294  -26.5621   28.3109 N   0  0  0  0  0  0  0  0  0  0  0  0
  -14.1553  -24.1862   24.4389 H   0  0  0  0  0  0  0  0  0  0  0  0
  -14.6805  -22.8720   25.4087 H   0  0  0  0  0  0  0  0  0  0  0  0
  -12.0459  -21.1363   25.3361 H   0  0  0  0  0  0  0  0  0  0  0  0
  -10.5450  -20.8719   23.0442 H   0  0  0  0  0  0  0  0  0  0  0  0
  -11.9350  -22.2551   21.2062 H   0  0  0  0  0  0  0  0  0  0  0  0
  -13.5008  -26.0219   25.0299 H   0  0  0  0  0  0  0  0  0  0  0  0
  -12.1890  -25.6237   25.4092 H   0  0  0  0  0  0  0  0  0  0  0  0
  -10.8507  -27.0450   25.7889 H   0  0  0  0  0  0  0  0  0  0  0  0
  -10.8844  -25.8048   27.1379 H   0  0  0  0  0  0  0  0  0  0  0  0
  -11.9042  -28.5599   27.0848 H   0  0  0  0  0  0  0  0  0  0  0  0
  -12.1122  -27.4115   28.4305 H   0  0  0  0  0  0  0  0  0  0  0  0
  -13.5458  -27.6804   25.5827 H   0  0  0  0  0  0  0  0  0  0  0  0
  -17.6011  -28.2489   25.9747 H   0  0  0  0  0  0  0  0  0  0  0  0
  -18.4732  -26.7986   27.8222 H   0  0  0  0  0  0  0  0  0  0  0  0
  -16.7555  -25.7496   29.3127 H   0  0  0  0  0  0  0  0  0  0  0  0
  1  2  2  0
  2  3  1  0
  3  4  1  0
  4  5  1  0
  5  6  2  0
  6  7  1  0
  7  8  2  0
  2  9  1  0
  9 10  1  0
 10 11  1  0
 11 12  1  0
 12 13  1  0
 13 14  1  0
 14 15  2  0
 15 16  1  0
 16 17  2  0
 17 18  1  0
 18 19  2  0
  8  4  1  0
 13  9  1  0
 19 14  1  0
  3 20  1  0
  3 21  1  0
  5 22  1  0
  6 23  1  0
  7 24  1  0
 10 25  1  0
 10 26  1  0
 11 27  1  0
 11 28  1  0
 12 29  1  0
 12 30  1  0
 13 31  1  0
 16 32  1  0
 17 33  1  0
 18 34  1  0
M  END
>  <Energy>  (350) 
621.64912841567696

>  <compound_id>  (350) 
5081

>  <target_id>  (350) 
1

>  <reference_id>  (350) 
112

>  <inspiration_ids>  (350) 
[54, 112]

>  <energy_score>  (350) 
547.2468289091835

>  <distance_score>  (350) 
8.248677437435433

>  <path>  (350) 
/opt/xchem-fragalysis-2/maxwin/BulkDock/SCRATCH/511018/C5081-P112/C5081-P112.minimised.mol

>  <scratch_subdir>  (350) 
/opt/xchem-fragalysis-2/maxwin/BulkDock/SCRATCH/511018/C5081-P112

>  <fragmenstein_runtime>  (350) 
14.72509503364563

>  <fragmenstein_outcome>  (350) 
too moved

>  <fragmenstein_mode>  (350) 
expansion

>  <fragmenstein_error>  (350) 


$$$$
C5082-P54
     RDKit          3D

 42 44  0  0  0  0  0  0  0  0999 V2000
  -16.1592  -27.6034   18.8551 C   0  0  0  0  0  0  0  0  0  0  0  0
  -14.6529  -27.3871   18.7795 C   0  0  0  0  0  0  0  0  0  0  0  0
  -13.8677  -26.3324   19.6658 C   0  0  0  0  0  0  0  0  0  0  0  0
  -13.8685  -25.8019   21.4180 N   0  0  0  0  0  0  0  0  0  0  0  0
  -14.9259  -26.2000   22.7288 C   0  0  0  0  0  0  0  0  0  0  0  0
  -15.9761  -26.8712   22.7403 O   0  0  0  0  0  0  0  0  0  0  0  0
  -14.4392  -25.7153   24.3600 C   0  0  0  0  0  0  0  0  0  0  0  0
  -13.9065  -24.4930   24.7721 C   0  0  0  0  0  0  0  0  0  0  0  0
  -13.3483  -24.1989   25.9879 N   0  0  0  0  0  0  0  0  0  0  0  0
  -13.3665  -25.1564   26.9228 C   0  0  0  0  0  0  0  0  0  0  0  0
  -12.5653  -24.9442   28.2217 C   0  0  0  0  0  0  0  0  0  0  0  0
  -12.4501  -23.4901   28.6812 C   0  0  0  0  0  0  0  0  0  0  0  0
  -11.2399  -23.4313   29.5967 C   0  0  0  0  0  0  0  0  0  0  0  0
  -10.5204  -24.7394   29.3522 C   0  0  0  0  0  0  0  0  0  0  0  0
  -11.1259  -25.3316   28.1447 N   0  0  0  0  0  0  0  0  0  0  0  0
  -13.9927  -26.3314   26.7054 N   0  0  0  0  0  0  0  0  0  0  0  0
  -14.5534  -26.5483   25.4648 C   0  0  0  0  0  0  0  0  0  0  0  0
  -14.2652  -27.1264   17.3604 N   0  0  0  0  0  0  0  0  0  0  0  0
  -13.3210  -27.8021   16.6345 C   0  0  0  0  0  0  0  0  0  0  0  0
  -13.2967  -27.2136   15.3917 C   0  0  0  0  0  0  0  0  0  0  0  0
  -14.2494  -26.1822   15.4694 C   0  0  0  0  0  0  0  0  0  0  0  0
  -14.8113  -26.0979   16.6797 N   0  0  0  0  0  0  0  0  0  0  0  0
  -16.4856  -27.8676   19.8634 H   0  0  0  0  0  0  0  0  0  0  0  0
  -16.7273  -26.7411   18.4969 H   0  0  0  0  0  0  0  0  0  0  0  0
  -16.4474  -28.4405   18.2065 H   0  0  0  0  0  0  0  0  0  0  0  0
  -14.1971  -28.3682   18.9516 H   0  0  0  0  0  0  0  0  0  0  0  0
  -12.8844  -26.7316   19.4872 H   0  0  0  0  0  0  0  0  0  0  0  0
  -13.7171  -25.3712   19.1345 H   0  0  0  0  0  0  0  0  0  0  0  0
  -13.1770  -25.1941   21.7252 H   0  0  0  0  0  0  0  0  0  0  0  0
  -13.8148  -23.6431   24.0965 H   0  0  0  0  0  0  0  0  0  0  0  0
  -13.0443  -25.5440   29.0068 H   0  0  0  0  0  0  0  0  0  0  0  0
  -13.3487  -23.1625   29.1999 H   0  0  0  0  0  0  0  0  0  0  0  0
  -12.2729  -22.8117   27.8379 H   0  0  0  0  0  0  0  0  0  0  0  0
  -11.5294  -23.3354   30.6474 H   0  0  0  0  0  0  0  0  0  0  0  0
  -10.6116  -22.5705   29.3424 H   0  0  0  0  0  0  0  0  0  0  0  0
   -9.4455  -24.5852   29.2192 H   0  0  0  0  0  0  0  0  0  0  0  0
  -10.6679  -25.4158   30.2014 H   0  0  0  0  0  0  0  0  0  0  0  0
  -10.7383  -24.8408   27.3358 H   0  0  0  0  0  0  0  0  0  0  0  0
  -15.0944  -27.4897   25.4193 H   0  0  0  0  0  0  0  0  0  0  0  0
  -12.7623  -28.6309   17.0470 H   0  0  0  0  0  0  0  0  0  0  0  0
  -12.6792  -27.4895   14.5486 H   0  0  0  0  0  0  0  0  0  0  0  0
  -14.5413  -25.4748   14.7031 H   0  0  0  0  0  0  0  0  0  0  0  0
  1  2  1  0
  2  3  1  0
  3  4  1  0
  4  5  1  0
  5  6  2  0
  5  7  1  0
  7  8  2  0
  8  9  1  0
  9 10  2  0
 10 11  1  0
 11 12  1  0
 12 13  1  0
 13 14  1  0
 14 15  1  0
 10 16  1  0
 16 17  2  0
  2 18  1  0
 18 19  1  0
 19 20  2  0
 20 21  1  0
 21 22  2  0
 17  7  1  0
 22 18  1  0
 15 11  1  0
  1 23  1  0
  1 24  1  0
  1 25  1  0
  2 26  1  0
  3 27  1  0
  3 28  1  0
  4 29  1  0
  8 30  1  0
 11 31  1  0
 12 32  1  0
 12 33  1  0
 13 34  1  0
 13 35  1  0
 14 36  1  0
 14 37  1  0
 15 38  1  0
 17 39  1  0
 19 40  1  0
 20 41  1  0
 21 42  1  0
M  END
>  <Energy>  (351) 
179.64042628460732

>  <compound_id>  (351) 
5082

>  <target_id>  (351) 
1

>  <reference_id>  (351) 
54

>  <inspiration_ids>  (351) 
[54, 112]

>  <energy_score>  (351) 
96.66829037384963

>  <distance_score>  (351) 
4.420044566791459

>  <path>  (351) 
/opt/xchem-fragalysis-2/maxwin/BulkDock/SCRATCH/511018/C5082-P54/C5082-P54.minimised.mol

>  <scratch_subdir>  (351) 
/opt/xchem-fragalysis-2/maxwin/BulkDock/SCRATCH/511018/C5082-P54

>  <fragmenstein_runtime>  (351) 
8.76615571975708

>  <fragmenstein_outcome>  (351) 
too moved

>  <fragmenstein_mode>  (351) 
expansion

>  <fragmenstein_error>  (351) 


$$$$
C5082-P112
     RDKit          3D

 42 44  0  0  0  0  0  0  0  0999 V2000
  -13.8462  -26.1017   20.0833 C   0  0  0  0  0  0  0  0  0  0  0  0
  -13.0019  -24.6640   20.0165 C   0  0  0  0  0  0  0  0  0  0  0  0
  -12.6638  -23.0426   21.2486 C   0  0  0  0  0  0  0  0  0  0  0  0
  -12.0518  -22.7220   23.0577 N   0  0  0  0  0  0  0  0  0  0  0  0
  -12.8252  -23.0229   24.6132 C   0  0  0  0  0  0  0  0  0  0  0  0
  -13.9636  -23.4119   24.7799 O   0  0  0  0  0  0  0  0  0  0  0  0
  -11.9163  -22.9584   26.2749 C   0  0  0  0  0  0  0  0  0  0  0  0
  -11.8619  -22.3002   27.5363 C   0  0  0  0  0  0  0  0  0  0  0  0
  -11.1769  -22.5547   28.9936 N   0  0  0  0  0  0  0  0  0  0  0  0
  -10.4695  -23.7141   29.3325 C   0  0  0  0  0  0  0  0  0  0  0  0
   -9.8332  -24.2083   31.2853 C   0  0  0  0  0  0  0  0  0  0  0  0
   -9.7077  -23.3719   32.7443 C   0  0  0  0  0  0  0  0  0  0  0  0
   -8.1646  -22.8513   33.9298 C   0  0  0  0  0  0  0  0  0  0  0  0
   -7.4825  -24.0185   33.4191 C   0  0  0  0  0  0  0  0  0  0  0  0
   -8.7441  -24.9821   32.4852 N   0  0  0  0  0  0  0  0  0  0  0  0
  -10.4006  -24.4768   28.1687 N   0  0  0  0  0  0  0  0  0  0  0  0
  -11.1431  -24.0778   26.7869 C   0  0  0  0  0  0  0  0  0  0  0  0
  -13.5558  -24.8691   18.3749 N   0  0  0  0  0  0  0  0  0  0  0  0
  -13.0463  -25.8784   17.4816 C   0  0  0  0  0  0  0  0  0  0  0  0
  -13.7813  -25.8350   16.3283 C   0  0  0  0  0  0  0  0  0  0  0  0
  -14.7552  -24.8743   16.5960 C   0  0  0  0  0  0  0  0  0  0  0  0
  -14.6501  -24.3483   17.8170 N   0  0  0  0  0  0  0  0  0  0  0  0
  -13.8940  -26.4833   21.0707 H   0  0  0  0  0  0  0  0  0  0  0  0
  -14.8585  -26.1682   19.6671 H   0  0  0  0  0  0  0  0  0  0  0  0
  -13.3819  -26.9273   19.5161 H   0  0  0  0  0  0  0  0  0  0  0  0
  -11.9827  -24.9878   19.9088 H   0  0  0  0  0  0  0  0  0  0  0  0
  -11.6071  -23.2518   21.0855 H   0  0  0  0  0  0  0  0  0  0  0  0
  -12.4777  -22.1451   20.6812 H   0  0  0  0  0  0  0  0  0  0  0  0
  -11.1243  -22.3229   23.2129 H   0  0  0  0  0  0  0  0  0  0  0  0
  -12.4033  -21.3813   27.6758 H   0  0  0  0  0  0  0  0  0  0  0  0
   -8.8985  -24.6079   30.7856 H   0  0  0  0  0  0  0  0  0  0  0  0
  -10.2980  -24.1478   33.1658 H   0  0  0  0  0  0  0  0  0  0  0  0
  -10.4123  -22.5659   32.5894 H   0  0  0  0  0  0  0  0  0  0  0  0
   -7.6846  -21.8226   33.7913 H   0  0  0  0  0  0  0  0  0  0  0  0
   -8.2631  -22.6157   35.0214 H   0  0  0  0  0  0  0  0  0  0  0  0
   -7.1445  -24.0390   34.4440 H   0  0  0  0  0  0  0  0  0  0  0  0
   -6.4809  -23.9495   32.9344 H   0  0  0  0  0  0  0  0  0  0  0  0
   -8.2674  -25.7214   31.9759 H   0  0  0  0  0  0  0  0  0  0  0  0
  -10.9763  -24.9273   26.1198 H   0  0  0  0  0  0  0  0  0  0  0  0
  -12.1951  -26.4782   17.7747 H   0  0  0  0  0  0  0  0  0  0  0  0
  -13.6475  -26.4290   15.4362 H   0  0  0  0  0  0  0  0  0  0  0  0
  -15.5629  -24.5384   15.9577 H   0  0  0  0  0  0  0  0  0  0  0  0
  1  2  1  0
  2  3  1  0
  3  4  1  0
  4  5  1  0
  5  6  2  0
  5  7  1  0
  7  8  2  0
  8  9  1  0
  9 10  2  0
 10 11  1  0
 11 12  1  0
 12 13  1  0
 13 14  1  0
 14 15  1  0
 10 16  1  0
 16 17  2  0
  2 18  1  0
 18 19  1  0
 19 20  2  0
 20 21  1  0
 21 22  2  0
 17  7  1  0
 22 18  1  0
 15 11  1  0
  1 23  1  0
  1 24  1  0
  1 25  1  0
  2 26  1  0
  3 27  1  0
  3 28  1  0
  4 29  1  0
  8 30  1  0
 11 31  1  0
 12 32  1  0
 12 33  1  0
 13 34  1  0
 13 35  1  0
 14 36  1  0
 14 37  1  0
 15 38  1  0
 17 39  1  0
 19 40  1  0
 20 41  1  0
 21 42  1  0
M  END
>  <Energy>  (352) 
927.11117826915824

>  <compound_id>  (352) 
5082

>  <target_id>  (352) 
1

>  <reference_id>  (352) 
112

>  <inspiration_ids>  (352) 
[54, 112]

>  <energy_score>  (352) 
844.1390423583964

>  <distance_score>  (352) 
3.0861214635776326

>  <path>  (352) 
/opt/xchem-fragalysis-2/maxwin/BulkDock/SCRATCH/511018/C5082-P112/C5082-P112.minimised.mol

>  <scratch_subdir>  (352) 
/opt/xchem-fragalysis-2/maxwin/BulkDock/SCRATCH/511018/C5082-P112

>  <fragmenstein_runtime>  (352) 
8.56541109085083

>  <fragmenstein_outcome>  (352) 
too moved

>  <fragmenstein_mode>  (352) 
expansion

>  <fragmenstein_error>  (352) 


$$$$
C5083-P54
     RDKit          3D

 42 44  0  0  0  0  0  0  0  0999 V2000
  -10.9731  -21.5489   23.5778 O   0  0  0  0  0  0  0  0  0  0  0  0
  -12.0353  -22.0859   23.5543 C   0  0  0  0  0  0  0  0  0  0  0  0
  -12.7642  -22.6636   22.4655 N   0  0  0  0  0  0  0  0  0  0  0  0
  -12.3642  -22.8911   20.9579 C   0  0  0  0  0  0  0  0  0  0  0  0
  -12.7674  -24.5806   20.2404 C   0  0  0  0  0  0  0  0  0  0  0  0
  -13.4911  -25.6746   18.9943 C   0  0  0  0  0  0  0  0  0  0  0  0
  -12.9838  -26.4172   17.8326 N   0  0  0  0  0  0  0  0  0  0  0  0
  -11.9610  -27.3199   17.7412 C   0  0  0  0  0  0  0  0  0  0  0  0
  -11.9260  -27.7572   16.4384 C   0  0  0  0  0  0  0  0  0  0  0  0
  -13.0391  -27.1547   15.8364 C   0  0  0  0  0  0  0  0  0  0  0  0
  -13.7205  -26.3866   16.6903 N   0  0  0  0  0  0  0  0  0  0  0  0
  -12.6671  -22.2865   24.9666 C   0  0  0  0  0  0  0  0  0  0  0  0
  -11.8904  -21.9183   26.0509 C   0  0  0  0  0  0  0  0  0  0  0  0
  -11.6661  -22.5674   27.2174 N   0  0  0  0  0  0  0  0  0  0  0  0
  -12.2586  -23.7415   27.3697 C   0  0  0  0  0  0  0  0  0  0  0  0
  -11.6532  -24.6412   28.4408 C   0  0  0  0  0  0  0  0  0  0  0  0
  -10.6702  -23.9184   29.3827 C   0  0  0  0  0  0  0  0  0  0  0  0
  -10.7784  -24.6472   30.7097 C   0  0  0  0  0  0  0  0  0  0  0  0
  -11.6725  -25.8366   30.4156 C   0  0  0  0  0  0  0  0  0  0  0  0
  -12.5693  -25.3296   29.3762 N   0  0  0  0  0  0  0  0  0  0  0  0
  -13.1592  -24.2019   26.4720 N   0  0  0  0  0  0  0  0  0  0  0  0
  -13.3552  -23.4376   25.3276 C   0  0  0  0  0  0  0  0  0  0  0  0
  -13.6731  -22.9585   22.7964 H   0  0  0  0  0  0  0  0  0  0  0  0
  -11.2934  -22.8627   21.1022 H   0  0  0  0  0  0  0  0  0  0  0  0
  -12.3242  -22.1290   20.2204 H   0  0  0  0  0  0  0  0  0  0  0  0
  -13.0566  -23.9045   19.4254 H   0  0  0  0  0  0  0  0  0  0  0  0
  -13.4627  -24.8971   21.0178 H   0  0  0  0  0  0  0  0  0  0  0  0
  -14.2898  -25.0848   18.5217 H   0  0  0  0  0  0  0  0  0  0  0  0
  -13.8759  -26.5164   19.5657 H   0  0  0  0  0  0  0  0  0  0  0  0
  -11.3202  -27.5433   18.5739 H   0  0  0  0  0  0  0  0  0  0  0  0
  -11.2107  -28.4352   15.9954 H   0  0  0  0  0  0  0  0  0  0  0  0
  -13.3915  -27.2506   14.8175 H   0  0  0  0  0  0  0  0  0  0  0  0
  -11.4839  -20.9228   26.0949 H   0  0  0  0  0  0  0  0  0  0  0  0
  -11.0906  -25.4115   27.8929 H   0  0  0  0  0  0  0  0  0  0  0  0
  -10.9168  -22.8623   29.5444 H   0  0  0  0  0  0  0  0  0  0  0  0
   -9.6490  -23.9655   28.9867 H   0  0  0  0  0  0  0  0  0  0  0  0
  -11.2404  -23.9736   31.4366 H   0  0  0  0  0  0  0  0  0  0  0  0
   -9.8025  -24.9359   31.1055 H   0  0  0  0  0  0  0  0  0  0  0  0
  -11.0953  -26.6814   30.0255 H   0  0  0  0  0  0  0  0  0  0  0  0
  -12.2097  -26.1884   31.2990 H   0  0  0  0  0  0  0  0  0  0  0  0
  -13.0478  -26.0813   28.8838 H   0  0  0  0  0  0  0  0  0  0  0  0
  -14.0044  -23.9445   24.6283 H   0  0  0  0  0  0  0  0  0  0  0  0
  1  2  2  0
  2  3  1  0
  3  4  1  0
  4  5  1  0
  5  6  1  0
  6  7  1  0
  7  8  1  0
  8  9  2  0
  9 10  1  0
 10 11  2  0
  2 12  1  0
 12 13  2  0
 13 14  1  0
 14 15  2  0
 15 16  1  0
 16 17  1  0
 17 18  1  0
 18 19  1  0
 19 20  1  0
 15 21  1  0
 21 22  2  0
 11  7  1  0
 22 12  1  0
 20 16  1  0
  3 23  1  0
  4 24  1  0
  4 25  1  0
  5 26  1  0
  5 27  1  0
  6 28  1  0
  6 29  1  0
  8 30  1  0
  9 31  1  0
 10 32  1  0
 13 33  1  0
 16 34  1  0
 17 35  1  0
 17 36  1  0
 18 37  1  0
 18 38  1  0
 19 39  1  0
 19 40  1  0
 20 41  1  0
 22 42  1  0
M  END
>  <Energy>  (353) 
223.54812207412402

>  <compound_id>  (353) 
5083

>  <target_id>  (353) 
1

>  <reference_id>  (353) 
54

>  <inspiration_ids>  (353) 
[54, 112]

>  <energy_score>  (353) 
166.71386146785198

>  <distance_score>  (353) 
3.940815048779805

>  <path>  (353) 
/opt/xchem-fragalysis-2/maxwin/BulkDock/SCRATCH/511018/C5083-P54/C5083-P54.minimised.mol

>  <scratch_subdir>  (353) 
/opt/xchem-fragalysis-2/maxwin/BulkDock/SCRATCH/511018/C5083-P54

>  <fragmenstein_runtime>  (353) 
18.29782509803772

>  <fragmenstein_outcome>  (353) 
too moved

>  <fragmenstein_mode>  (353) 
expansion

>  <fragmenstein_error>  (353) 


$$$$
C5083-P112
     RDKit          3D

 42 44  0  0  0  0  0  0  0  0999 V2000
  -16.8171  -29.1268   24.9277 O   0  0  0  0  0  0  0  0  0  0  0  0
  -16.4290  -28.1635   24.3354 C   0  0  0  0  0  0  0  0  0  0  0  0
  -16.7360  -27.6865   23.0053 N   0  0  0  0  0  0  0  0  0  0  0  0
  -17.5378  -28.2787   21.9364 C   0  0  0  0  0  0  0  0  0  0  0  0
  -17.3295  -27.6173   20.5537 C   0  0  0  0  0  0  0  0  0  0  0  0
  -16.4930  -28.4469   19.5551 C   0  0  0  0  0  0  0  0  0  0  0  0
  -15.6324  -27.6807   18.6536 N   0  0  0  0  0  0  0  0  0  0  0  0
  -14.2904  -27.8639   18.4414 C   0  0  0  0  0  0  0  0  0  0  0  0
  -13.9216  -26.9715   17.4607 C   0  0  0  0  0  0  0  0  0  0  0  0
  -15.1130  -26.3055   17.1278 C   0  0  0  0  0  0  0  0  0  0  0  0
  -16.1538  -26.7343   17.8504 N   0  0  0  0  0  0  0  0  0  0  0  0
  -15.3848  -27.3564   25.0411 C   0  0  0  0  0  0  0  0  0  0  0  0
  -15.2567  -26.0037   24.9018 C   0  0  0  0  0  0  0  0  0  0  0  0
  -14.1864  -25.3118   25.3458 N   0  0  0  0  0  0  0  0  0  0  0  0
  -13.2248  -25.9526   26.0412 C   0  0  0  0  0  0  0  0  0  0  0  0
  -11.9499  -25.1566   26.2835 C   0  0  0  0  0  0  0  0  0  0  0  0
  -12.2035  -23.6449   26.4162 C   0  0  0  0  0  0  0  0  0  0  0  0
  -11.3966  -23.2080   27.5998 C   0  0  0  0  0  0  0  0  0  0  0  0
  -10.3384  -24.2717   27.6169 C   0  0  0  0  0  0  0  0  0  0  0  0
  -11.0063  -25.5423   27.3148 N   0  0  0  0  0  0  0  0  0  0  0  0
  -13.3063  -27.2631   26.3059 N   0  0  0  0  0  0  0  0  0  0  0  0
  -14.4008  -27.9293   25.8278 C   0  0  0  0  0  0  0  0  0  0  0  0
  -16.1621  -26.8831   22.8027 H   0  0  0  0  0  0  0  0  0  0  0  0
  -17.3418  -29.3555   21.9164 H   0  0  0  0  0  0  0  0  0  0  0  0
  -18.5796  -28.1465   22.2491 H   0  0  0  0  0  0  0  0  0  0  0  0
  -18.3194  -27.4823   20.0974 H   0  0  0  0  0  0  0  0  0  0  0  0
  -16.9242  -26.6117   20.6697 H   0  0  0  0  0  0  0  0  0  0  0  0
  -15.8520  -29.1627   20.0748 H   0  0  0  0  0  0  0  0  0  0  0  0
  -17.1590  -29.0319   18.9088 H   0  0  0  0  0  0  0  0  0  0  0  0
  -13.7198  -28.6048   18.9812 H   0  0  0  0  0  0  0  0  0  0  0  0
  -12.9372  -26.8332   17.0365 H   0  0  0  0  0  0  0  0  0  0  0  0
  -15.2711  -25.5269   16.3915 H   0  0  0  0  0  0  0  0  0  0  0  0
  -16.0123  -25.4005   24.4088 H   0  0  0  0  0  0  0  0  0  0  0  0
  -11.3103  -25.3797   25.4427 H   0  0  0  0  0  0  0  0  0  0  0  0
  -13.2390  -23.3590   26.5220 H   0  0  0  0  0  0  0  0  0  0  0  0
  -11.8771  -23.1223   25.5191 H   0  0  0  0  0  0  0  0  0  0  0  0
  -11.9791  -23.2198   28.5084 H   0  0  0  0  0  0  0  0  0  0  0  0
  -11.0515  -22.1806   27.5275 H   0  0  0  0  0  0  0  0  0  0  0  0
   -9.8481  -24.3325   28.5627 H   0  0  0  0  0  0  0  0  0  0  0  0
   -9.5808  -24.1052   26.8574 H   0  0  0  0  0  0  0  0  0  0  0  0
  -11.5733  -25.8011   28.1226 H   0  0  0  0  0  0  0  0  0  0  0  0
  -14.4256  -28.9901   26.0729 H   0  0  0  0  0  0  0  0  0  0  0  0
  1  2  2  0
  2  3  1  0
  3  4  1  0
  4  5  1  0
  5  6  1  0
  6  7  1  0
  7  8  1  0
  8  9  2  0
  9 10  1  0
 10 11  2  0
  2 12  1  0
 12 13  2  0
 13 14  1  0
 14 15  2  0
 15 16  1  0
 16 17  1  0
 17 18  1  0
 18 19  1  0
 19 20  1  0
 15 21  1  0
 21 22  2  0
 11  7  1  0
 22 12  1  0
 20 16  1  0
  3 23  1  0
  4 24  1  0
  4 25  1  0
  5 26  1  0
  5 27  1  0
  6 28  1  0
  6 29  1  0
  8 30  1  0
  9 31  1  0
 10 32  1  0
 13 33  1  0
 16 34  1  0
 17 35  1  0
 17 36  1  0
 18 37  1  0
 18 38  1  0
 19 39  1  0
 19 40  1  0
 20 41  1  0
 22 42  1  0
M  END
>  <Energy>  (354) 
60.572050272190097

>  <compound_id>  (354) 
5083

>  <target_id>  (354) 
1

>  <reference_id>  (354) 
112

>  <inspiration_ids>  (354) 
[54, 112]

>  <energy_score>  (354) 
3.737789665921241

>  <distance_score>  (354) 
5.840494218086997

>  <path>  (354) 
/opt/xchem-fragalysis-2/maxwin/BulkDock/SCRATCH/511018/C5083-P112/C5083-P112.minimised.mol

>  <scratch_subdir>  (354) 
/opt/xchem-fragalysis-2/maxwin/BulkDock/SCRATCH/511018/C5083-P112

>  <fragmenstein_runtime>  (354) 
19.09477400779724

>  <fragmenstein_outcome>  (354) 
too moved

>  <fragmenstein_mode>  (354) 
expansion

>  <fragmenstein_error>  (354) 


$$$$
C5084-P54
     RDKit          3D

 41 43  0  0  0  0  0  0  0  0999 V2000
   -9.0168  -27.1104   26.6237 O   0  0  0  0  0  0  0  0  0  0  0  0
  -10.3767  -26.6619   26.7572 S   0  0  0  0  0  0  0  0  0  0  0  0
  -11.2255  -27.3232   27.7267 O   0  0  0  0  0  0  0  0  0  0  0  0
  -11.2271  -26.8001   25.1478 C   0  0  0  0  0  0  0  0  0  0  0  0
  -10.4748  -27.2298   23.4567 C   0  0  0  0  0  0  0  0  0  0  0  0
  -10.3351  -27.7358   21.4059 C   0  0  0  0  0  0  0  0  0  0  0  0
  -11.2758  -28.0275   19.6423 N   0  0  0  0  0  0  0  0  0  0  0  0
  -12.1956  -27.3342   18.7577 C   0  0  0  0  0  0  0  0  0  0  0  0
  -12.2561  -27.9857   17.5535 C   0  0  0  0  0  0  0  0  0  0  0  0
  -11.6773  -29.2202   17.8067 C   0  0  0  0  0  0  0  0  0  0  0  0
  -11.2831  -29.3615   19.0722 N   0  0  0  0  0  0  0  0  0  0  0  0
  -10.3440  -25.0070   27.1584 N   0  0  0  0  0  0  0  0  0  0  0  0
   -9.6441  -24.6717   28.4352 C   0  0  0  0  0  0  0  0  0  0  0  0
   -9.8771  -23.1847   28.6115 C   0  0  0  0  0  0  0  0  0  0  0  0
  -11.3285  -23.0278   28.2308 C   0  0  0  0  0  0  0  0  0  0  0  0
  -11.5884  -24.1404   27.1873 C   0  0  0  0  0  0  0  0  0  0  0  0
  -12.9269  -24.7949   27.4682 C   0  0  0  0  0  0  0  0  0  0  0  0
  -13.8059  -24.8290   26.4452 N   0  0  0  0  0  0  0  0  0  0  0  0
  -15.0054  -25.3730   26.7110 C   0  0  0  0  0  0  0  0  0  0  0  0
  -15.3375  -25.9219   27.9239 C   0  0  0  0  0  0  0  0  0  0  0  0
  -14.3635  -25.8690   28.8883 C   0  0  0  0  0  0  0  0  0  0  0  0
  -13.1657  -25.2919   28.6989 N   0  0  0  0  0  0  0  0  0  0  0  0
  -11.9651  -27.5848   25.3928 H   0  0  0  0  0  0  0  0  0  0  0  0
  -11.8207  -25.9041   25.1470 H   0  0  0  0  0  0  0  0  0  0  0  0
  -11.3985  -27.6437   23.7042 H   0  0  0  0  0  0  0  0  0  0  0  0
   -9.5139  -27.6513   23.9761 H   0  0  0  0  0  0  0  0  0  0  0  0
  -10.0758  -26.6169   21.5537 H   0  0  0  0  0  0  0  0  0  0  0  0
   -9.7499  -27.1936   20.7145 H   0  0  0  0  0  0  0  0  0  0  0  0
  -12.7196  -26.4438   19.0649 H   0  0  0  0  0  0  0  0  0  0  0  0
  -12.7653  -27.6587   16.6591 H   0  0  0  0  0  0  0  0  0  0  0  0
  -11.5876  -30.0697   17.1423 H   0  0  0  0  0  0  0  0  0  0  0  0
   -8.5786  -24.8923   28.3785 H   0  0  0  0  0  0  0  0  0  0  0  0
  -10.1127  -25.2066   29.2675 H   0  0  0  0  0  0  0  0  0  0  0  0
   -9.6669  -22.8458   29.6293 H   0  0  0  0  0  0  0  0  0  0  0  0
   -9.2596  -22.6075   27.9191 H   0  0  0  0  0  0  0  0  0  0  0  0
  -11.5306  -22.0342   27.8152 H   0  0  0  0  0  0  0  0  0  0  0  0
  -11.9537  -23.1252   29.1261 H   0  0  0  0  0  0  0  0  0  0  0  0
  -11.6367  -23.6600   26.2015 H   0  0  0  0  0  0  0  0  0  0  0  0
  -15.7181  -25.3624   25.8918 H   0  0  0  0  0  0  0  0  0  0  0  0
  -16.3070  -26.3624   28.1113 H   0  0  0  0  0  0  0  0  0  0  0  0
  -14.5300  -26.2948   29.8730 H   0  0  0  0  0  0  0  0  0  0  0  0
  1  2  2  0
  2  3  2  0
  2  4  1  0
  4  5  1  0
  5  6  1  0
  6  7  1  0
  7  8  1  0
  8  9  2  0
  9 10  1  0
 10 11  2  0
  2 12  1  0
 12 13  1  0
 13 14  1  0
 14 15  1  0
 15 16  1  0
 16 17  1  0
 17 18  2  0
 18 19  1  0
 19 20  2  0
 20 21  1  0
 21 22  2  0
 11  7  1  0
 16 12  1  0
 22 17  1  0
  4 23  1  0
  4 24  1  0
  5 25  1  0
  5 26  1  0
  6 27  1  0
  6 28  1  0
  8 29  1  0
  9 30  1  0
 10 31  1  0
 13 32  1  0
 13 33  1  0
 14 34  1  0
 14 35  1  0
 15 36  1  0
 15 37  1  0
 16 38  1  0
 19 39  1  0
 20 40  1  0
 21 41  1  0
M  END
>  <Energy>  (355) 
419.81090104307384

>  <compound_id>  (355) 
5084

>  <target_id>  (355) 
1

>  <reference_id>  (355) 
54

>  <inspiration_ids>  (355) 
[54, 112]

>  <energy_score>  (355) 
393.01969787302266

>  <distance_score>  (355) 
5.264456051752096

>  <path>  (355) 
/opt/xchem-fragalysis-2/maxwin/BulkDock/SCRATCH/511018/C5084-P54/C5084-P54.minimised.mol

>  <scratch_subdir>  (355) 
/opt/xchem-fragalysis-2/maxwin/BulkDock/SCRATCH/511018/C5084-P54

>  <fragmenstein_runtime>  (355) 
12.019346714019775

>  <fragmenstein_outcome>  (355) 
too moved

>  <fragmenstein_mode>  (355) 
expansion

>  <fragmenstein_error>  (355) 


$$$$
C5084-P112
     RDKit          3D

 41 43  0  0  0  0  0  0  0  0999 V2000
  -10.2781  -25.9032   25.6619 O   0  0  0  0  0  0  0  0  0  0  0  0
   -9.8014  -24.5286   25.8959 S   0  0  0  0  0  0  0  0  0  0  0  0
  -11.0519  -23.7750   25.9150 O   0  0  0  0  0  0  0  0  0  0  0  0
   -8.8084  -23.6212   23.8021 C   0  0  0  0  0  0  0  0  0  0  0  0
   -8.3838  -24.1291   21.7226 C   0  0  0  0  0  0  0  0  0  0  0  0
  -10.2430  -24.3277   20.5384 C   0  0  0  0  0  0  0  0  0  0  0  0
  -11.8440  -25.1273   19.8879 N   0  0  0  0  0  0  0  0  0  0  0  0
  -12.0355  -26.3150   18.7683 C   0  0  0  0  0  0  0  0  0  0  0  0
  -13.1636  -26.1824   18.0294 C   0  0  0  0  0  0  0  0  0  0  0  0
  -13.7292  -25.1183   18.6724 C   0  0  0  0  0  0  0  0  0  0  0  0
  -13.0818  -24.5958   19.7564 N   0  0  0  0  0  0  0  0  0  0  0  0
   -9.5227  -24.5407   28.2096 N   0  0  0  0  0  0  0  0  0  0  0  0
   -8.4999  -25.1818   29.8619 C   0  0  0  0  0  0  0  0  0  0  0  0
   -8.9704  -25.1868   31.4621 C   0  0  0  0  0  0  0  0  0  0  0  0
  -10.1201  -24.1472   31.2483 C   0  0  0  0  0  0  0  0  0  0  0  0
  -10.4423  -23.8001   29.1948 C   0  0  0  0  0  0  0  0  0  0  0  0
  -11.4653  -22.8521   29.0022 C   0  0  0  0  0  0  0  0  0  0  0  0
  -11.6059  -22.2334   30.1988 N   0  0  0  0  0  0  0  0  0  0  0  0
  -12.4762  -21.3552   30.2607 C   0  0  0  0  0  0  0  0  0  0  0  0
  -12.6077  -20.7483   29.1068 C   0  0  0  0  0  0  0  0  0  0  0  0
  -12.2787  -21.4254   27.9052 C   0  0  0  0  0  0  0  0  0  0  0  0
  -11.8671  -22.6130   27.8266 N   0  0  0  0  0  0  0  0  0  0  0  0
   -9.4203  -22.7099   23.6309 H   0  0  0  0  0  0  0  0  0  0  0  0
   -7.7941  -23.3041   24.1146 H   0  0  0  0  0  0  0  0  0  0  0  0
   -8.4759  -24.8232   20.8814 H   0  0  0  0  0  0  0  0  0  0  0  0
   -7.3846  -23.8359   21.4322 H   0  0  0  0  0  0  0  0  0  0  0  0
  -11.0194  -23.5252   20.9231 H   0  0  0  0  0  0  0  0  0  0  0  0
  -10.3477  -25.3402   21.0343 H   0  0  0  0  0  0  0  0  0  0  0  0
  -11.7423  -27.2778   19.0685 H   0  0  0  0  0  0  0  0  0  0  0  0
  -13.5625  -26.8249   17.2600 H   0  0  0  0  0  0  0  0  0  0  0  0
  -14.6189  -24.6526   18.2804 H   0  0  0  0  0  0  0  0  0  0  0  0
   -7.9378  -24.3195   30.0683 H   0  0  0  0  0  0  0  0  0  0  0  0
   -8.0118  -26.1824   29.9457 H   0  0  0  0  0  0  0  0  0  0  0  0
   -9.1050  -26.2517   31.6205 H   0  0  0  0  0  0  0  0  0  0  0  0
   -8.4751  -25.0053   32.4087 H   0  0  0  0  0  0  0  0  0  0  0  0
   -9.8883  -23.5878   32.2163 H   0  0  0  0  0  0  0  0  0  0  0  0
  -11.0407  -24.1820   31.8254 H   0  0  0  0  0  0  0  0  0  0  0  0
   -9.9095  -22.8966   28.7462 H   0  0  0  0  0  0  0  0  0  0  0  0
  -12.7447  -21.1059   31.2454 H   0  0  0  0  0  0  0  0  0  0  0  0
  -12.9136  -19.7353   29.1953 H   0  0  0  0  0  0  0  0  0  0  0  0
  -12.2759  -21.0628   26.8969 H   0  0  0  0  0  0  0  0  0  0  0  0
  1  2  2  0
  2  3  2  0
  2  4  1  0
  4  5  1  0
  5  6  1  0
  6  7  1  0
  7  8  1  0
  8  9  2  0
  9 10  1  0
 10 11  2  0
  2 12  1  0
 12 13  1  0
 13 14  1  0
 14 15  1  0
 15 16  1  0
 16 17  1  0
 17 18  2  0
 18 19  1  0
 19 20  2  0
 20 21  1  0
 21 22  2  0
 11  7  1  0
 16 12  1  0
 22 17  1  0
  4 23  1  0
  4 24  1  0
  5 25  1  0
  5 26  1  0
  6 27  1  0
  6 28  1  0
  8 29  1  0
  9 30  1  0
 10 31  1  0
 13 32  1  0
 13 33  1  0
 14 34  1  0
 14 35  1  0
 15 36  1  0
 15 37  1  0
 16 38  1  0
 19 39  1  0
 20 40  1  0
 21 41  1  0
M  END
>  <Energy>  (356) 
1213.2203469484311

>  <compound_id>  (356) 
5084

>  <target_id>  (356) 
1

>  <reference_id>  (356) 
112

>  <inspiration_ids>  (356) 
[54, 112]

>  <energy_score>  (356) 
1186.4291437783863

>  <distance_score>  (356) 
4.63544460963697

>  <path>  (356) 
/opt/xchem-fragalysis-2/maxwin/BulkDock/SCRATCH/511018/C5084-P112/C5084-P112.minimised.mol

>  <scratch_subdir>  (356) 
/opt/xchem-fragalysis-2/maxwin/BulkDock/SCRATCH/511018/C5084-P112

>  <fragmenstein_runtime>  (356) 
12.905430555343628

>  <fragmenstein_outcome>  (356) 
too moved

>  <fragmenstein_mode>  (356) 
expansion

>  <fragmenstein_error>  (356) 


$$$$
C5086-P54
     RDKit          3D

 46 47  0  0  0  0  0  0  0  0999 V2000
  -12.3863  -27.0466   26.3894 C   0  0  0  0  0  0  0  0  0  0  0  0
  -13.9113  -26.9953   26.6564 C   0  0  0  0  0  0  0  0  0  0  0  0
  -14.5183  -25.8182   25.7779 C   0  0  0  0  0  0  0  0  0  0  0  0
  -14.0340  -25.7698   24.3945 N   0  0  0  0  0  0  0  0  0  0  0  0
  -14.7039  -26.0976   23.1195 C   0  0  0  0  0  0  0  0  0  0  0  0
  -15.8067  -26.5695   22.9095 O   0  0  0  0  0  0  0  0  0  0  0  0
  -13.6979  -25.5632   21.5447 C   0  0  0  0  0  0  0  0  0  0  0  0
  -13.4962  -25.9192   19.7604 N   0  0  0  0  0  0  0  0  0  0  0  0
  -13.4493  -27.1011   19.0030 C   0  0  0  0  0  0  0  0  0  0  0  0
  -13.8231  -26.8425   17.7088 C   0  0  0  0  0  0  0  0  0  0  0  0
  -14.0632  -25.4810   17.6960 C   0  0  0  0  0  0  0  0  0  0  0  0
  -13.7504  -24.8851   18.8535 N   0  0  0  0  0  0  0  0  0  0  0  0
  -14.1132  -27.0058   28.2490 N   0  0  0  0  0  0  0  0  0  0  0  0
  -15.5180  -27.2839   27.8525 C   0  0  0  0  0  0  0  0  0  0  0  0
  -13.5182  -25.8334   28.8352 C   0  0  0  0  0  0  0  0  0  0  0  0
  -13.9897  -24.7529   29.0673 O   0  0  0  0  0  0  0  0  0  0  0  0
  -12.0727  -26.1639   29.2898 C   0  0  0  0  0  0  0  0  0  0  0  0
  -11.3553  -25.0677   30.0740 C   0  0  0  0  0  0  0  0  0  0  0  0
  -11.2418  -23.7660   29.3463 C   0  0  0  0  0  0  0  0  0  0  0  0
  -11.1829  -22.6608   30.1088 N   0  0  0  0  0  0  0  0  0  0  0  0
  -11.1469  -21.4880   29.4650 C   0  0  0  0  0  0  0  0  0  0  0  0
  -11.1411  -21.3953   28.0993 C   0  0  0  0  0  0  0  0  0  0  0  0
  -11.1668  -22.5824   27.4073 C   0  0  0  0  0  0  0  0  0  0  0  0
  -11.1923  -23.7865   27.9983 N   0  0  0  0  0  0  0  0  0  0  0  0
  -11.9017  -27.7855   27.0348 H   0  0  0  0  0  0  0  0  0  0  0  0
  -11.9148  -26.0659   26.4920 H   0  0  0  0  0  0  0  0  0  0  0  0
  -12.1841  -27.3816   25.3745 H   0  0  0  0  0  0  0  0  0  0  0  0
  -14.2210  -27.9620   26.2273 H   0  0  0  0  0  0  0  0  0  0  0  0
  -15.6057  -25.8916   25.6975 H   0  0  0  0  0  0  0  0  0  0  0  0
  -14.2708  -24.8514   26.2281 H   0  0  0  0  0  0  0  0  0  0  0  0
  -13.1885  -25.3292   24.2035 H   0  0  0  0  0  0  0  0  0  0  0  0
  -13.5879  -24.5121   21.4398 H   0  0  0  0  0  0  0  0  0  0  0  0
  -14.5654  -25.9277   21.2180 H   0  0  0  0  0  0  0  0  0  0  0  0
  -13.1538  -28.0552   19.3726 H   0  0  0  0  0  0  0  0  0  0  0  0
  -13.9150  -27.5522   16.8997 H   0  0  0  0  0  0  0  0  0  0  0  0
  -14.4081  -24.8770   16.8695 H   0  0  0  0  0  0  0  0  0  0  0  0
  -15.9861  -27.4995   28.8261 H   0  0  0  0  0  0  0  0  0  0  0  0
  -15.7268  -28.2074   27.2966 H   0  0  0  0  0  0  0  0  0  0  0  0
  -16.0803  -26.3946   27.5521 H   0  0  0  0  0  0  0  0  0  0  0  0
  -12.1326  -27.0547   29.9285 H   0  0  0  0  0  0  0  0  0  0  0  0
  -11.4249  -26.4192   28.4593 H   0  0  0  0  0  0  0  0  0  0  0  0
  -10.3411  -25.3964   30.3133 H   0  0  0  0  0  0  0  0  0  0  0  0
  -11.8442  -24.9136   31.0333 H   0  0  0  0  0  0  0  0  0  0  0  0
  -11.1251  -20.6039   30.0961 H   0  0  0  0  0  0  0  0  0  0  0  0
  -11.1160  -20.4409   27.5985 H   0  0  0  0  0  0  0  0  0  0  0  0
  -11.1753  -22.5897   26.3225 H   0  0  0  0  0  0  0  0  0  0  0  0
  1  2  1  0
  2  3  1  0
  3  4  1  0
  4  5  1  0
  5  6  2  0
  5  7  1  0
  7  8  1  0
  8  9  1  0
  9 10  2  0
 10 11  1  0
 11 12  2  0
  2 13  1  0
 13 14  1  0
 13 15  1  0
 15 16  2  0
 15 17  1  0
 17 18  1  0
 18 19  1  0
 19 20  2  0
 20 21  1  0
 21 22  2  0
 22 23  1  0
 23 24  2  0
 12  8  1  0
 24 19  1  0
  1 25  1  0
  1 26  1  0
  1 27  1  0
  2 28  1  0
  3 29  1  0
  3 30  1  0
  4 31  1  0
  7 32  1  0
  7 33  1  0
  9 34  1  0
 10 35  1  0
 11 36  1  0
 14 37  1  0
 14 38  1  0
 14 39  1  0
 17 40  1  0
 17 41  1  0
 18 42  1  0
 18 43  1  0
 21 44  1  0
 22 45  1  0
 23 46  1  0
M  END
>  <Energy>  (357) 
234.85737846577743

>  <compound_id>  (357) 
5086

>  <target_id>  (357) 
1

>  <reference_id>  (357) 
54

>  <inspiration_ids>  (357) 
[54, 112]

>  <energy_score>  (357) 
203.54724297310764

>  <distance_score>  (357) 
5.175347897015617

>  <path>  (357) 
/opt/xchem-fragalysis-2/maxwin/BulkDock/SCRATCH/511018/C5086-P54/C5086-P54.minimised.mol

>  <scratch_subdir>  (357) 
/opt/xchem-fragalysis-2/maxwin/BulkDock/SCRATCH/511018/C5086-P54

>  <fragmenstein_runtime>  (357) 
29.432335138320923

>  <fragmenstein_outcome>  (357) 
too moved

>  <fragmenstein_mode>  (357) 
expansion

>  <fragmenstein_error>  (357) 


$$$$
C5086-P112
     RDKit          3D

 46 47  0  0  0  0  0  0  0  0999 V2000
   -7.8257  -28.3903   29.7107 C   0  0  0  0  0  0  0  0  0  0  0  0
   -8.8947  -27.2591   30.2093 C   0  0  0  0  0  0  0  0  0  0  0  0
  -10.0274  -27.7830   28.7315 C   0  0  0  0  0  0  0  0  0  0  0  0
  -11.3724  -27.5961   28.2357 N   0  0  0  0  0  0  0  0  0  0  0  0
  -11.8690  -27.3063   26.8856 C   0  0  0  0  0  0  0  0  0  0  0  0
  -11.2779  -27.0699   25.8697 O   0  0  0  0  0  0  0  0  0  0  0  0
  -13.3848  -27.4639   26.9271 C   0  0  0  0  0  0  0  0  0  0  0  0
  -14.3624  -26.8163   26.0784 N   0  0  0  0  0  0  0  0  0  0  0  0
  -15.7094  -26.9119   26.3639 C   0  0  0  0  0  0  0  0  0  0  0  0
  -16.3844  -26.4857   25.2567 C   0  0  0  0  0  0  0  0  0  0  0  0
  -15.3601  -26.2223   24.3562 C   0  0  0  0  0  0  0  0  0  0  0  0
  -14.1302  -26.3539   24.8571 N   0  0  0  0  0  0  0  0  0  0  0  0
   -8.3554  -25.4814   30.5471 N   0  0  0  0  0  0  0  0  0  0  0  0
   -7.0578  -26.0941   30.4964 C   0  0  0  0  0  0  0  0  0  0  0  0
   -9.2060  -24.8239   31.8604 C   0  0  0  0  0  0  0  0  0  0  0  0
   -8.8652  -24.8664   32.9941 O   0  0  0  0  0  0  0  0  0  0  0  0
  -10.6388  -23.8472   31.7251 C   0  0  0  0  0  0  0  0  0  0  0  0
  -11.4282  -22.4334   30.6360 C   0  0  0  0  0  0  0  0  0  0  0  0
  -11.2168  -22.5692   29.0792 C   0  0  0  0  0  0  0  0  0  0  0  0
  -11.8774  -21.7713   28.2799 N   0  0  0  0  0  0  0  0  0  0  0  0
  -12.0419  -22.2595   27.0442 C   0  0  0  0  0  0  0  0  0  0  0  0
  -11.7679  -23.5214   26.6340 C   0  0  0  0  0  0  0  0  0  0  0  0
  -10.8786  -24.1461   27.4138 C   0  0  0  0  0  0  0  0  0  0  0  0
  -10.5727  -23.6640   28.6114 N   0  0  0  0  0  0  0  0  0  0  0  0
   -7.0631  -28.0244   29.0468 H   0  0  0  0  0  0  0  0  0  0  0  0
   -8.3317  -29.1400   29.1061 H   0  0  0  0  0  0  0  0  0  0  0  0
   -7.3347  -29.0715   30.4071 H   0  0  0  0  0  0  0  0  0  0  0  0
   -9.5058  -27.5641   31.0502 H   0  0  0  0  0  0  0  0  0  0  0  0
   -9.4552  -28.1967   27.8965 H   0  0  0  0  0  0  0  0  0  0  0  0
  -10.3179  -28.6743   29.2135 H   0  0  0  0  0  0  0  0  0  0  0  0
  -12.1513  -27.8291   28.8311 H   0  0  0  0  0  0  0  0  0  0  0  0
  -13.5496  -28.5141   26.6851 H   0  0  0  0  0  0  0  0  0  0  0  0
  -13.7706  -27.2895   27.9245 H   0  0  0  0  0  0  0  0  0  0  0  0
  -16.0687  -27.3097   27.3032 H   0  0  0  0  0  0  0  0  0  0  0  0
  -17.4534  -26.4612   25.0980 H   0  0  0  0  0  0  0  0  0  0  0  0
  -15.4983  -26.0347   23.3255 H   0  0  0  0  0  0  0  0  0  0  0  0
   -6.7005  -25.5116   31.3124 H   0  0  0  0  0  0  0  0  0  0  0  0
   -6.5969  -26.6783   29.7341 H   0  0  0  0  0  0  0  0  0  0  0  0
   -6.1151  -25.4961   30.2859 H   0  0  0  0  0  0  0  0  0  0  0  0
  -11.1841  -24.3511   32.4392 H   0  0  0  0  0  0  0  0  0  0  0  0
  -10.3775  -23.1500   32.5317 H   0  0  0  0  0  0  0  0  0  0  0  0
  -12.5025  -22.4291   30.7552 H   0  0  0  0  0  0  0  0  0  0  0  0
  -11.1212  -21.4317   30.9425 H   0  0  0  0  0  0  0  0  0  0  0  0
  -12.3339  -21.5666   26.2787 H   0  0  0  0  0  0  0  0  0  0  0  0
  -12.0941  -23.8699   25.6925 H   0  0  0  0  0  0  0  0  0  0  0  0
  -10.3984  -25.0603   27.1184 H   0  0  0  0  0  0  0  0  0  0  0  0
  1  2  1  0
  2  3  1  0
  3  4  1  0
  4  5  1  0
  5  6  2  0
  5  7  1  0
  7  8  1  0
  8  9  1  0
  9 10  2  0
 10 11  1  0
 11 12  2  0
  2 13  1  0
 13 14  1  0
 13 15  1  0
 15 16  2  0
 15 17  1  0
 17 18  1  0
 18 19  1  0
 19 20  2  0
 20 21  1  0
 21 22  2  0
 22 23  1  0
 23 24  2  0
 12  8  1  0
 24 19  1  0
  1 25  1  0
  1 26  1  0
  1 27  1  0
  2 28  1  0
  3 29  1  0
  3 30  1  0
  4 31  1  0
  7 32  1  0
  7 33  1  0
  9 34  1  0
 10 35  1  0
 11 36  1  0
 14 37  1  0
 14 38  1  0
 14 39  1  0
 17 40  1  0
 17 41  1  0
 18 42  1  0
 18 43  1  0
 21 44  1  0
 22 45  1  0
 23 46  1  0
M  END
>  <Energy>  (358) 
431.67193510156136

>  <compound_id>  (358) 
5086

>  <target_id>  (358) 
1

>  <reference_id>  (358) 
112

>  <inspiration_ids>  (358) 
[54, 112]

>  <energy_score>  (358) 
400.3617996088913

>  <distance_score>  (358) 
7.259100392499345

>  <path>  (358) 
/opt/xchem-fragalysis-2/maxwin/BulkDock/SCRATCH/511018/C5086-P112/C5086-P112.minimised.mol

>  <scratch_subdir>  (358) 
/opt/xchem-fragalysis-2/maxwin/BulkDock/SCRATCH/511018/C5086-P112

>  <fragmenstein_runtime>  (358) 
20.923725843429565

>  <fragmenstein_outcome>  (358) 
too moved

>  <fragmenstein_mode>  (358) 
expansion

>  <fragmenstein_error>  (358) 


$$$$
C5090-P54
     RDKit          3D

 38 39  0  0  0  0  0  0  0  0999 V2000
  -11.3044  -21.2679   20.9826 C   0  0  0  0  0  0  0  0  0  0  0  0
   -9.8796  -21.5861   20.8903 C   0  0  0  0  0  0  0  0  0  0  0  0
   -9.5648  -21.8327   19.1821 O   0  0  0  0  0  0  0  0  0  0  0  0
   -9.2344  -21.5100   17.4980 C   0  0  0  0  0  0  0  0  0  0  0  0
   -8.5653  -20.5015   17.3942 O   0  0  0  0  0  0  0  0  0  0  0  0
   -9.7332  -22.6867   15.9648 C   0  0  0  0  0  0  0  0  0  0  0  0
   -9.4395  -23.9929   15.5513 C   0  0  0  0  0  0  0  0  0  0  0  0
   -9.9847  -24.7755   14.4783 C   0  0  0  0  0  0  0  0  0  0  0  0
   -9.9424  -26.2891   14.5049 C   0  0  0  0  0  0  0  0  0  0  0  0
   -9.3822  -26.8423   13.3910 F   0  0  0  0  0  0  0  0  0  0  0  0
  -11.1896  -26.8417   14.6064 F   0  0  0  0  0  0  0  0  0  0  0  0
  -10.5455  -24.1925   13.4431 N   0  0  0  0  0  0  0  0  0  0  0  0
  -10.5286  -22.8929   13.6142 C   0  0  0  0  0  0  0  0  0  0  0  0
  -10.2255  -22.1890   14.7939 N   0  0  0  0  0  0  0  0  0  0  0  0
   -9.6898  -21.8131   22.7238 C   0  0  0  0  0  0  0  0  0  0  0  0
   -8.5725  -21.9157   23.2371 O   0  0  0  0  0  0  0  0  0  0  0  0
  -10.9688  -22.1833   23.7959 C   0  0  0  0  0  0  0  0  0  0  0  0
  -12.1824  -21.3576   24.1045 C   0  0  0  0  0  0  0  0  0  0  0  0
  -13.2781  -22.2546   24.7182 C   0  0  0  0  0  0  0  0  0  0  0  0
  -12.9575  -22.7121   26.0181 O   0  0  0  0  0  0  0  0  0  0  0  0
  -11.7863  -23.4822   26.0895 C   0  0  0  0  0  0  0  0  0  0  0  0
  -10.6519  -23.0077   25.1628 C   0  0  0  0  0  0  0  0  0  0  0  0
  -11.8898  -22.1796   21.1095 H   0  0  0  0  0  0  0  0  0  0  0  0
  -11.4734  -20.5657   21.7860 H   0  0  0  0  0  0  0  0  0  0  0  0
  -11.6455  -20.7678   20.1215 H   0  0  0  0  0  0  0  0  0  0  0  0
   -9.1389  -20.8536   20.8870 H   0  0  0  0  0  0  0  0  0  0  0  0
   -8.6597  -24.4842   16.0611 H   0  0  0  0  0  0  0  0  0  0  0  0
   -9.3837  -26.6586   15.3674 H   0  0  0  0  0  0  0  0  0  0  0  0
  -10.8469  -22.2894   12.7789 H   0  0  0  0  0  0  0  0  0  0  0  0
  -11.4686  -22.8150   23.1125 H   0  0  0  0  0  0  0  0  0  0  0  0
  -12.5949  -21.0062   23.1852 H   0  0  0  0  0  0  0  0  0  0  0  0
  -11.9182  -20.4820   24.6864 H   0  0  0  0  0  0  0  0  0  0  0  0
  -13.4893  -23.1171   24.0810 H   0  0  0  0  0  0  0  0  0  0  0  0
  -14.2332  -21.7205   24.7607 H   0  0  0  0  0  0  0  0  0  0  0  0
  -11.4419  -23.4516   27.1313 H   0  0  0  0  0  0  0  0  0  0  0  0
  -12.0492  -24.5328   25.9335 H   0  0  0  0  0  0  0  0  0  0  0  0
   -9.9854  -23.8340   24.9669 H   0  0  0  0  0  0  0  0  0  0  0  0
  -10.0928  -22.4500   25.8924 H   0  0  0  0  0  0  0  0  0  0  0  0
  1  2  1  0
  2  3  1  0
  3  4  1  0
  4  5  2  0
  4  6  1  0
  6  7  2  0
  7  8  1  0
  8  9  1  0
  9 10  1  0
  9 11  1  0
  8 12  2  0
 12 13  1  0
 13 14  2  0
  2 15  1  0
 15 16  2  0
 15 17  1  0
 17 18  1  0
 18 19  1  0
 19 20  1  0
 20 21  1  0
 21 22  1  0
 14  6  1  0
 22 17  1  0
  1 23  1  0
  1 24  1  0
  1 25  1  0
  2 26  1  0
  7 27  1  0
  9 28  1  0
 13 29  1  0
 17 30  1  0
 18 31  1  0
 18 32  1  0
 19 33  1  0
 19 34  1  0
 21 35  1  0
 21 36  1  0
 22 37  1  0
 22 38  1  0
M  END
>  <Energy>  (359) 
420.20813910464148

>  <compound_id>  (359) 
5090

>  <target_id>  (359) 
1

>  <reference_id>  (359) 
54

>  <inspiration_ids>  (359) 
[54, 112]

>  <energy_score>  (359) 
315.89598662084074

>  <distance_score>  (359) 
6.329271216409836

>  <path>  (359) 
/opt/xchem-fragalysis-2/maxwin/BulkDock/SCRATCH/511018/C5090-P54/C5090-P54.minimised.mol

>  <scratch_subdir>  (359) 
/opt/xchem-fragalysis-2/maxwin/BulkDock/SCRATCH/511018/C5090-P54

>  <fragmenstein_runtime>  (359) 
9.998846530914307

>  <fragmenstein_outcome>  (359) 
too moved

>  <fragmenstein_mode>  (359) 
expansion

>  <fragmenstein_error>  (359) 


$$$$
C5090-P112
     RDKit          3D

 38 39  0  0  0  0  0  0  0  0999 V2000
  -11.1018  -21.6618   22.6280 C   0  0  0  0  0  0  0  0  0  0  0  0
  -12.3979  -22.4275   22.6483 C   0  0  0  0  0  0  0  0  0  0  0  0
  -12.7436  -23.0377   21.1282 O   0  0  0  0  0  0  0  0  0  0  0  0
  -12.4768  -24.2805   20.3700 C   0  0  0  0  0  0  0  0  0  0  0  0
  -11.3510  -24.7436   20.5225 O   0  0  0  0  0  0  0  0  0  0  0  0
  -13.5162  -25.1630   19.2499 C   0  0  0  0  0  0  0  0  0  0  0  0
  -13.9267  -24.7435   17.9748 C   0  0  0  0  0  0  0  0  0  0  0  0
  -14.5785  -25.6198   17.1157 C   0  0  0  0  0  0  0  0  0  0  0  0
  -15.0440  -25.1515   15.7553 C   0  0  0  0  0  0  0  0  0  0  0  0
  -14.0856  -24.4724   15.0657 F   0  0  0  0  0  0  0  0  0  0  0  0
  -16.1206  -24.3180   15.8266 F   0  0  0  0  0  0  0  0  0  0  0  0
  -14.8352  -26.8881   17.4740 N   0  0  0  0  0  0  0  0  0  0  0  0
  -14.4449  -27.2236   18.7018 C   0  0  0  0  0  0  0  0  0  0  0  0
  -13.8403  -26.4269   19.5984 N   0  0  0  0  0  0  0  0  0  0  0  0
  -13.0752  -22.8638   24.2107 C   0  0  0  0  0  0  0  0  0  0  0  0
  -14.2869  -23.0925   24.2976 O   0  0  0  0  0  0  0  0  0  0  0  0
  -12.0733  -23.2033   25.4878 C   0  0  0  0  0  0  0  0  0  0  0  0
  -12.1078  -22.2127   26.6319 C   0  0  0  0  0  0  0  0  0  0  0  0
  -11.1940  -22.3668   27.8439 C   0  0  0  0  0  0  0  0  0  0  0  0
  -10.3883  -23.5300   27.6721 O   0  0  0  0  0  0  0  0  0  0  0  0
  -11.2818  -24.5676   27.4153 C   0  0  0  0  0  0  0  0  0  0  0  0
  -11.9810  -24.6245   26.1022 C   0  0  0  0  0  0  0  0  0  0  0  0
  -10.3141  -22.1395   23.1971 H   0  0  0  0  0  0  0  0  0  0  0  0
  -10.7678  -21.5047   21.6023 H   0  0  0  0  0  0  0  0  0  0  0  0
  -11.2299  -20.7071   23.1321 H   0  0  0  0  0  0  0  0  0  0  0  0
  -13.0729  -21.6102   22.6037 H   0  0  0  0  0  0  0  0  0  0  0  0
  -13.7178  -23.7535   17.6063 H   0  0  0  0  0  0  0  0  0  0  0  0
  -15.3358  -26.0102   15.1431 H   0  0  0  0  0  0  0  0  0  0  0  0
  -14.6420  -28.2437   19.0131 H   0  0  0  0  0  0  0  0  0  0  0  0
  -11.1362  -23.2338   24.9606 H   0  0  0  0  0  0  0  0  0  0  0  0
  -13.0736  -22.3694   27.0599 H   0  0  0  0  0  0  0  0  0  0  0  0
  -12.0309  -21.2232   26.2142 H   0  0  0  0  0  0  0  0  0  0  0  0
  -11.7509  -22.4084   28.7873 H   0  0  0  0  0  0  0  0  0  0  0  0
  -10.5457  -21.5265   27.9944 H   0  0  0  0  0  0  0  0  0  0  0  0
  -12.1288  -24.2274   27.9598 H   0  0  0  0  0  0  0  0  0  0  0  0
  -10.8669  -25.5312   27.7097 H   0  0  0  0  0  0  0  0  0  0  0  0
  -11.3488  -25.3238   25.5470 H   0  0  0  0  0  0  0  0  0  0  0  0
  -12.9659  -25.0988   26.1653 H   0  0  0  0  0  0  0  0  0  0  0  0
  1  2  1  0
  2  3  1  0
  3  4  1  0
  4  5  2  0
  4  6  1  0
  6  7  2  0
  7  8  1  0
  8  9  1  0
  9 10  1  0
  9 11  1  0
  8 12  2  0
 12 13  1  0
 13 14  2  0
  2 15  1  0
 15 16  2  0
 15 17  1  0
 17 18  1  0
 18 19  1  0
 19 20  1  0
 20 21  1  0
 21 22  1  0
 14  6  1  0
 22 17  1  0
  1 23  1  0
  1 24  1  0
  1 25  1  0
  2 26  1  0
  7 27  1  0
  9 28  1  0
 13 29  1  0
 17 30  1  0
 18 31  1  0
 18 32  1  0
 19 33  1  0
 19 34  1  0
 21 35  1  0
 21 36  1  0
 22 37  1  0
 22 38  1  0
M  END
>  <Energy>  (360) 
216.90024218975495

>  <compound_id>  (360) 
5090

>  <target_id>  (360) 
1

>  <reference_id>  (360) 
112

>  <inspiration_ids>  (360) 
[54, 112]

>  <energy_score>  (360) 
112.58808970595828

>  <distance_score>  (360) 
6.60541046357927

>  <path>  (360) 
/opt/xchem-fragalysis-2/maxwin/BulkDock/SCRATCH/511018/C5090-P112/C5090-P112.minimised.mol

>  <scratch_subdir>  (360) 
/opt/xchem-fragalysis-2/maxwin/BulkDock/SCRATCH/511018/C5090-P112

>  <fragmenstein_runtime>  (360) 
14.686213970184326

>  <fragmenstein_outcome>  (360) 
too moved

>  <fragmenstein_mode>  (360) 
expansion

>  <fragmenstein_error>  (360) 


$$$$
C5110-P54
     RDKit          3D

 43 45  0  0  0  0  0  0  0  0999 V2000
  -13.9880  -23.0905   25.0873 C   0  0  0  0  0  0  0  0  0  0  0  0
  -13.5640  -22.7432   23.8326 C   0  0  0  0  0  0  0  0  0  0  0  0
  -12.3395  -22.1818   23.8734 N   0  0  0  0  0  0  0  0  0  0  0  0
  -11.4032  -21.8306   22.7962 C   0  0  0  0  0  0  0  0  0  0  0  0
  -11.3496  -21.8609   21.2872 C   0  0  0  0  0  0  0  0  0  0  0  0
  -10.1651  -21.4953   20.6005 C   0  0  0  0  0  0  0  0  0  0  0  0
   -9.4835  -21.2714   19.3656 N   0  0  0  0  0  0  0  0  0  0  0  0
   -9.2055  -21.3713   17.5051 C   0  0  0  0  0  0  0  0  0  0  0  0
   -9.8222  -22.6099   16.0632 C   0  0  0  0  0  0  0  0  0  0  0  0
   -9.7645  -23.8584   14.9074 C   0  0  0  0  0  0  0  0  0  0  0  0
  -10.9361  -24.1329   14.1248 O   0  0  0  0  0  0  0  0  0  0  0  0
  -10.9754  -25.3926   13.4554 C   0  0  0  0  0  0  0  0  0  0  0  0
  -10.4640  -25.2231   12.0293 C   0  0  0  0  0  0  0  0  0  0  0  0
  -11.1977  -26.1032   11.0301 C   0  0  0  0  0  0  0  0  0  0  0  0
  -11.6598  -27.2936   11.6523 O   0  0  0  0  0  0  0  0  0  0  0  0
  -12.7022  -27.0507   12.5909 C   0  0  0  0  0  0  0  0  0  0  0  0
  -12.4278  -25.8621   13.4943 C   0  0  0  0  0  0  0  0  0  0  0  0
   -9.2489  -21.3079   21.4872 N   0  0  0  0  0  0  0  0  0  0  0  0
   -9.2572  -21.5642   22.7674 C   0  0  0  0  0  0  0  0  0  0  0  0
  -10.3041  -21.7092   23.4672 N   0  0  0  0  0  0  0  0  0  0  0  0
  -12.0185  -22.3868   25.2367 C   0  0  0  0  0  0  0  0  0  0  0  0
  -12.9695  -22.9452   25.9576 N   0  0  0  0  0  0  0  0  0  0  0  0
  -14.9131  -23.5603   25.3913 H   0  0  0  0  0  0  0  0  0  0  0  0
  -13.8878  -23.0270   22.8786 H   0  0  0  0  0  0  0  0  0  0  0  0
  -12.1766  -22.2626   20.7362 H   0  0  0  0  0  0  0  0  0  0  0  0
   -8.9980  -20.4128   19.6617 H   0  0  0  0  0  0  0  0  0  0  0  0
   -9.6083  -20.4356   17.1718 H   0  0  0  0  0  0  0  0  0  0  0  0
   -8.1513  -21.1169   17.4143 H   0  0  0  0  0  0  0  0  0  0  0  0
   -8.8241  -22.9209   15.7873 H   0  0  0  0  0  0  0  0  0  0  0  0
  -10.2283  -21.8810   15.3637 H   0  0  0  0  0  0  0  0  0  0  0  0
   -9.4638  -24.7931   15.3720 H   0  0  0  0  0  0  0  0  0  0  0  0
   -9.0704  -23.5369   14.1188 H   0  0  0  0  0  0  0  0  0  0  0  0
  -10.3655  -26.1363   13.9842 H   0  0  0  0  0  0  0  0  0  0  0  0
   -9.3998  -25.4936   12.0278 H   0  0  0  0  0  0  0  0  0  0  0  0
  -10.4897  -24.1788   11.6998 H   0  0  0  0  0  0  0  0  0  0  0  0
  -10.5200  -26.3829   10.2166 H   0  0  0  0  0  0  0  0  0  0  0  0
  -12.0413  -25.5815   10.5694 H   0  0  0  0  0  0  0  0  0  0  0  0
  -13.6461  -26.9157   12.0502 H   0  0  0  0  0  0  0  0  0  0  0  0
  -12.8083  -27.9602   13.1917 H   0  0  0  0  0  0  0  0  0  0  0  0
  -13.0937  -25.0398   13.2195 H   0  0  0  0  0  0  0  0  0  0  0  0
  -12.7254  -26.1061   14.5211 H   0  0  0  0  0  0  0  0  0  0  0  0
   -8.3094  -21.6658   23.2645 H   0  0  0  0  0  0  0  0  0  0  0  0
  -11.0427  -22.2094   25.6432 H   0  0  0  0  0  0  0  0  0  0  0  0
  1  2  2  0
  2  3  1  0
  3  4  1  0
  4  5  2  0
  5  6  1  0
  6  7  1  0
  7  8  1  0
  8  9  1  0
  9 10  1  0
 10 11  1  0
 11 12  1  0
 12 13  1  0
 13 14  1  0
 14 15  1  0
 15 16  1  0
 16 17  1  0
  6 18  2  0
 18 19  1  0
 19 20  2  0
  3 21  1  0
 21 22  2  0
 22  1  1  0
 20  4  1  0
 17 12  1  0
  1 23  1  0
  2 24  1  0
  5 25  1  0
  7 26  1  0
  8 27  1  0
  8 28  1  0
  9 29  1  0
  9 30  1  0
 10 31  1  0
 10 32  1  0
 12 33  1  0
 13 34  1  0
 13 35  1  0
 14 36  1  0
 14 37  1  0
 16 38  1  0
 16 39  1  0
 17 40  1  0
 17 41  1  0
 19 42  1  0
 21 43  1  0
M  END
>  <Energy>  (361) 
307.69919771165536

>  <compound_id>  (361) 
5110

>  <target_id>  (361) 
1

>  <reference_id>  (361) 
54

>  <inspiration_ids>  (361) 
[54, 112]

>  <energy_score>  (361) 
271.42446450585754

>  <distance_score>  (361) 
5.722411305595625

>  <path>  (361) 
/opt/xchem-fragalysis-2/maxwin/BulkDock/SCRATCH/511018/C5110-P54/C5110-P54.minimised.mol

>  <scratch_subdir>  (361) 
/opt/xchem-fragalysis-2/maxwin/BulkDock/SCRATCH/511018/C5110-P54

>  <fragmenstein_runtime>  (361) 
6.308247089385986

>  <fragmenstein_outcome>  (361) 
too moved

>  <fragmenstein_mode>  (361) 
expansion

>  <fragmenstein_error>  (361) 


$$$$
C5110-P112
     RDKit          3D

 43 45  0  0  0  0  0  0  0  0999 V2000
  -11.1847  -21.5658   23.1508 C   0  0  0  0  0  0  0  0  0  0  0  0
   -9.9269  -21.5803   22.6050 C   0  0  0  0  0  0  0  0  0  0  0  0
  -10.0118  -21.4757   21.2329 N   0  0  0  0  0  0  0  0  0  0  0  0
   -8.9613  -20.7257   20.1575 C   0  0  0  0  0  0  0  0  0  0  0  0
   -9.1781  -21.0036   18.8831 C   0  0  0  0  0  0  0  0  0  0  0  0
   -8.6353  -20.6210   17.7388 C   0  0  0  0  0  0  0  0  0  0  0  0
   -9.4668  -21.3371   16.4599 N   0  0  0  0  0  0  0  0  0  0  0  0
   -9.0404  -22.4478   15.3120 C   0  0  0  0  0  0  0  0  0  0  0  0
   -9.6312  -22.4550   13.8738 C   0  0  0  0  0  0  0  0  0  0  0  0
  -10.2472  -23.8240   13.4729 C   0  0  0  0  0  0  0  0  0  0  0  0
  -11.1958  -23.6718   12.4125 O   0  0  0  0  0  0  0  0  0  0  0  0
  -12.2093  -24.6939   12.3790 C   0  0  0  0  0  0  0  0  0  0  0  0
  -12.5672  -24.9753   10.9149 C   0  0  0  0  0  0  0  0  0  0  0  0
  -14.0576  -25.2112   10.7094 C   0  0  0  0  0  0  0  0  0  0  0  0
  -14.5843  -25.9500   11.8042 O   0  0  0  0  0  0  0  0  0  0  0  0
  -14.6152  -25.1905   13.0092 C   0  0  0  0  0  0  0  0  0  0  0  0
  -13.4419  -24.2309   13.1522 C   0  0  0  0  0  0  0  0  0  0  0  0
   -7.6344  -19.7134   18.0203 N   0  0  0  0  0  0  0  0  0  0  0  0
   -7.1068  -19.2779   19.2748 C   0  0  0  0  0  0  0  0  0  0  0  0
   -7.7737  -19.6736   20.4087 N   0  0  0  0  0  0  0  0  0  0  0  0
  -11.3551  -21.7853   21.0965 C   0  0  0  0  0  0  0  0  0  0  0  0
  -12.0576  -21.8823   22.2019 N   0  0  0  0  0  0  0  0  0  0  0  0
  -11.5477  -21.4788   24.1601 H   0  0  0  0  0  0  0  0  0  0  0  0
   -8.9594  -21.7624   22.9982 H   0  0  0  0  0  0  0  0  0  0  0  0
   -9.7068  -21.9090   18.9116 H   0  0  0  0  0  0  0  0  0  0  0  0
   -9.7430  -20.5158   15.9302 H   0  0  0  0  0  0  0  0  0  0  0  0
   -9.2679  -23.4232   15.6982 H   0  0  0  0  0  0  0  0  0  0  0  0
   -7.9791  -22.4105   15.1598 H   0  0  0  0  0  0  0  0  0  0  0  0
   -8.7979  -22.2995   13.1737 H   0  0  0  0  0  0  0  0  0  0  0  0
  -10.2757  -21.6120   13.6450 H   0  0  0  0  0  0  0  0  0  0  0  0
  -10.7036  -24.3382   14.3174 H   0  0  0  0  0  0  0  0  0  0  0  0
   -9.4571  -24.4852   13.1010 H   0  0  0  0  0  0  0  0  0  0  0  0
  -11.8199  -25.6209   12.8212 H   0  0  0  0  0  0  0  0  0  0  0  0
  -12.0216  -25.8784   10.6113 H   0  0  0  0  0  0  0  0  0  0  0  0
  -12.2212  -24.1865   10.2406 H   0  0  0  0  0  0  0  0  0  0  0  0
  -14.2222  -25.7871    9.7930 H   0  0  0  0  0  0  0  0  0  0  0  0
  -14.6038  -24.2660   10.6024 H   0  0  0  0  0  0  0  0  0  0  0  0
  -15.5640  -24.6449   13.0614 H   0  0  0  0  0  0  0  0  0  0  0  0
  -14.6130  -25.9088   13.8359 H   0  0  0  0  0  0  0  0  0  0  0  0
  -13.7410  -23.2411   12.7902 H   0  0  0  0  0  0  0  0  0  0  0  0
  -13.2257  -24.0883   14.2106 H   0  0  0  0  0  0  0  0  0  0  0  0
   -6.2547  -18.6208   19.3076 H   0  0  0  0  0  0  0  0  0  0  0  0
  -11.8713  -21.8726   20.1752 H   0  0  0  0  0  0  0  0  0  0  0  0
  1  2  2  0
  2  3  1  0
  3  4  1  0
  4  5  2  0
  5  6  1  0
  6  7  1  0
  7  8  1  0
  8  9  1  0
  9 10  1  0
 10 11  1  0
 11 12  1  0
 12 13  1  0
 13 14  1  0
 14 15  1  0
 15 16  1  0
 16 17  1  0
  6 18  2  0
 18 19  1  0
 19 20  2  0
  3 21  1  0
 21 22  2  0
 22  1  1  0
 20  4  1  0
 17 12  1  0
  1 23  1  0
  2 24  1  0
  5 25  1  0
  7 26  1  0
  8 27  1  0
  8 28  1  0
  9 29  1  0
  9 30  1  0
 10 31  1  0
 10 32  1  0
 12 33  1  0
 13 34  1  0
 13 35  1  0
 14 36  1  0
 14 37  1  0
 16 38  1  0
 16 39  1  0
 17 40  1  0
 17 41  1  0
 19 42  1  0
 21 43  1  0
M  END
>  <Energy>  (362) 
168.21520150414045

>  <compound_id>  (362) 
5110

>  <target_id>  (362) 
1

>  <reference_id>  (362) 
112

>  <inspiration_ids>  (362) 
[54, 112]

>  <energy_score>  (362) 
131.94046829835105

>  <distance_score>  (362) 
5.795508939164541

>  <path>  (362) 
/opt/xchem-fragalysis-2/maxwin/BulkDock/SCRATCH/511018/C5110-P112/C5110-P112.minimised.mol

>  <scratch_subdir>  (362) 
/opt/xchem-fragalysis-2/maxwin/BulkDock/SCRATCH/511018/C5110-P112

>  <fragmenstein_runtime>  (362) 
11.988467693328857

>  <fragmenstein_outcome>  (362) 
too moved

>  <fragmenstein_mode>  (362) 
expansion

>  <fragmenstein_error>  (362) 


$$$$
C5123-P54
     RDKit          3D

 42 45  0  0  0  0  0  0  0  0999 V2000
  -15.3570  -26.2232   17.7193 C   0  0  0  0  0  0  0  0  0  0  0  0
  -14.6239  -26.0391   18.8899 C   0  0  0  0  0  0  0  0  0  0  0  0
  -15.2033  -25.8295   20.1886 C   0  0  0  0  0  0  0  0  0  0  0  0
  -14.1850  -25.5686   21.3695 C   0  0  0  0  0  0  0  0  0  0  0  0
  -14.2520  -26.0383   23.1612 N   0  0  0  0  0  0  0  0  0  0  0  0
  -14.0483  -25.6755   24.6312 C   0  0  0  0  0  0  0  0  0  0  0  0
  -13.9425  -26.5988   25.6590 C   0  0  0  0  0  0  0  0  0  0  0  0
  -13.3548  -26.3552   26.8798 N   0  0  0  0  0  0  0  0  0  0  0  0
  -12.9706  -25.0945   27.1654 C   0  0  0  0  0  0  0  0  0  0  0  0
  -11.9797  -24.8122   28.2922 C   0  0  0  0  0  0  0  0  0  0  0  0
  -12.0615  -23.3610   28.8106 C   0  0  0  0  0  0  0  0  0  0  0  0
  -11.1010  -23.1071   29.9634 C   0  0  0  0  0  0  0  0  0  0  0  0
  -11.3219  -24.0525   31.0013 O   0  0  0  0  0  0  0  0  0  0  0  0
  -11.1136  -25.3847   30.5702 C   0  0  0  0  0  0  0  0  0  0  0  0
  -12.0819  -25.7863   29.4662 C   0  0  0  0  0  0  0  0  0  0  0  0
  -13.2246  -24.0807   26.3380 N   0  0  0  0  0  0  0  0  0  0  0  0
  -13.7601  -24.3828   25.1349 C   0  0  0  0  0  0  0  0  0  0  0  0
  -16.5904  -25.8412   20.1692 C   0  0  0  0  0  0  0  0  0  0  0  0
  -17.4979  -25.6935   21.1768 N   0  0  0  0  0  0  0  0  0  0  0  0
  -18.7734  -25.6648   20.7628 N   0  0  0  0  0  0  0  0  0  0  0  0
  -18.6820  -25.8668   19.4474 C   0  0  0  0  0  0  0  0  0  0  0  0
  -17.3513  -25.9895   19.0099 C   0  0  0  0  0  0  0  0  0  0  0  0
  -16.7407  -26.1902   17.7658 C   0  0  0  0  0  0  0  0  0  0  0  0
  -14.8457  -26.3747   16.7715 H   0  0  0  0  0  0  0  0  0  0  0  0
  -13.5394  -26.0645   18.7858 H   0  0  0  0  0  0  0  0  0  0  0  0
  -13.3989  -26.0483   20.8740 H   0  0  0  0  0  0  0  0  0  0  0  0
  -13.6931  -24.5948   21.2890 H   0  0  0  0  0  0  0  0  0  0  0  0
  -13.9022  -25.0738   23.0757 H   0  0  0  0  0  0  0  0  0  0  0  0
  -14.2393  -27.6308   25.5367 H   0  0  0  0  0  0  0  0  0  0  0  0
  -10.9846  -24.9410   27.8420 H   0  0  0  0  0  0  0  0  0  0  0  0
  -11.8547  -22.6430   28.0085 H   0  0  0  0  0  0  0  0  0  0  0  0
  -13.0817  -23.1779   29.1620 H   0  0  0  0  0  0  0  0  0  0  0  0
  -10.0573  -23.1599   29.6316 H   0  0  0  0  0  0  0  0  0  0  0  0
  -11.2669  -22.1068   30.3760 H   0  0  0  0  0  0  0  0  0  0  0  0
  -11.2411  -26.0465   31.4310 H   0  0  0  0  0  0  0  0  0  0  0  0
  -10.0843  -25.4549   30.2301 H   0  0  0  0  0  0  0  0  0  0  0  0
  -13.1080  -25.7858   29.8508 H   0  0  0  0  0  0  0  0  0  0  0  0
  -11.8626  -26.8104   29.1421 H   0  0  0  0  0  0  0  0  0  0  0  0
  -13.8158  -23.4816   24.5227 H   0  0  0  0  0  0  0  0  0  0  0  0
  -17.2933  -25.5707   22.1637 H   0  0  0  0  0  0  0  0  0  0  0  0
  -19.5902  -25.9099   18.8599 H   0  0  0  0  0  0  0  0  0  0  0  0
  -17.3304  -26.3105   16.8619 H   0  0  0  0  0  0  0  0  0  0  0  0
  1  2  2  0
  2  3  1  0
  3  4  1  0
  4  5  1  0
  5  6  1  0
  6  7  2  0
  7  8  1  0
  8  9  2  0
  9 10  1  0
 10 11  1  0
 11 12  1  0
 12 13  1  0
 13 14  1  0
 14 15  1  0
  9 16  1  0
 16 17  2  0
  3 18  2  0
 18 19  1  0
 19 20  1  0
 20 21  2  0
 21 22  1  0
 22 23  2  0
 23  1  1  0
 17  6  1  0
 22 18  1  0
 15 10  1  0
  1 24  1  0
  2 25  1  0
  4 26  1  0
  4 27  1  0
  5 28  1  0
  7 29  1  0
 10 30  1  0
 11 31  1  0
 11 32  1  0
 12 33  1  0
 12 34  1  0
 14 35  1  0
 14 36  1  0
 15 37  1  0
 15 38  1  0
 17 39  1  0
 19 40  1  0
 21 41  1  0
 23 42  1  0
M  END
>  <Energy>  (363) 
213.63435411308924

>  <compound_id>  (363) 
5123

>  <target_id>  (363) 
1

>  <reference_id>  (363) 
54

>  <inspiration_ids>  (363) 
[54, 112]

>  <energy_score>  (363) 
116.82669390021135

>  <distance_score>  (363) 
6.378928827933176

>  <path>  (363) 
/opt/xchem-fragalysis-2/maxwin/BulkDock/SCRATCH/511018/C5123-P54/C5123-P54.minimised.mol

>  <scratch_subdir>  (363) 
/opt/xchem-fragalysis-2/maxwin/BulkDock/SCRATCH/511018/C5123-P54

>  <fragmenstein_runtime>  (363) 
10.351494073867798

>  <fragmenstein_outcome>  (363) 
too moved

>  <fragmenstein_mode>  (363) 
expansion

>  <fragmenstein_error>  (363) 


$$$$
C5123-P112
     RDKit          3D

 42 45  0  0  0  0  0  0  0  0999 V2000
  -12.8125  -28.1404   17.3686 C   0  0  0  0  0  0  0  0  0  0  0  0
  -12.8481  -27.2858   18.4784 C   0  0  0  0  0  0  0  0  0  0  0  0
  -13.1058  -25.8845   18.4437 C   0  0  0  0  0  0  0  0  0  0  0  0
  -13.1404  -24.9729   19.8290 C   0  0  0  0  0  0  0  0  0  0  0  0
  -12.4668  -23.4584   20.6299 N   0  0  0  0  0  0  0  0  0  0  0  0
  -12.5427  -22.6474   21.9168 C   0  0  0  0  0  0  0  0  0  0  0  0
  -13.5071  -22.7387   22.9478 C   0  0  0  0  0  0  0  0  0  0  0  0
  -13.5239  -22.5950   24.2701 N   0  0  0  0  0  0  0  0  0  0  0  0
  -12.3871  -22.2385   24.7499 C   0  0  0  0  0  0  0  0  0  0  0  0
  -12.1839  -22.8769   26.1666 C   0  0  0  0  0  0  0  0  0  0  0  0
  -11.8231  -21.9475   27.2852 C   0  0  0  0  0  0  0  0  0  0  0  0
  -11.3641  -22.5967   28.5176 C   0  0  0  0  0  0  0  0  0  0  0  0
  -10.2285  -23.3425   28.2425 O   0  0  0  0  0  0  0  0  0  0  0  0
  -10.4362  -24.3935   27.3537 C   0  0  0  0  0  0  0  0  0  0  0  0
  -11.3437  -24.1528   26.1905 C   0  0  0  0  0  0  0  0  0  0  0  0
  -11.4485  -21.7459   23.8762 N   0  0  0  0  0  0  0  0  0  0  0  0
  -11.5384  -21.9201   22.4906 C   0  0  0  0  0  0  0  0  0  0  0  0
  -13.6003  -25.5207   17.1448 C   0  0  0  0  0  0  0  0  0  0  0  0
  -14.1902  -24.3689   16.6688 N   0  0  0  0  0  0  0  0  0  0  0  0
  -14.4989  -24.3878   15.3549 N   0  0  0  0  0  0  0  0  0  0  0  0
  -14.0960  -25.5862   14.9550 C   0  0  0  0  0  0  0  0  0  0  0  0
  -13.5768  -26.3523   16.0162 C   0  0  0  0  0  0  0  0  0  0  0  0
  -13.1232  -27.6686   16.1097 C   0  0  0  0  0  0  0  0  0  0  0  0
  -12.5544  -29.1882   17.5015 H   0  0  0  0  0  0  0  0  0  0  0  0
  -12.6806  -27.8062   19.4081 H   0  0  0  0  0  0  0  0  0  0  0  0
  -14.0477  -24.6346   19.4141 H   0  0  0  0  0  0  0  0  0  0  0  0
  -13.4688  -25.6786   20.5671 H   0  0  0  0  0  0  0  0  0  0  0  0
  -12.5095  -22.6673   19.9637 H   0  0  0  0  0  0  0  0  0  0  0  0
  -14.5001  -22.9995   22.7980 H   0  0  0  0  0  0  0  0  0  0  0  0
  -13.1755  -23.2528   26.4282 H   0  0  0  0  0  0  0  0  0  0  0  0
  -11.0509  -21.3103   26.9459 H   0  0  0  0  0  0  0  0  0  0  0  0
  -12.6238  -21.3461   27.6345 H   0  0  0  0  0  0  0  0  0  0  0  0
  -11.1703  -21.8688   29.3080 H   0  0  0  0  0  0  0  0  0  0  0  0
  -12.1497  -23.2366   28.8317 H   0  0  0  0  0  0  0  0  0  0  0  0
  -10.6868  -25.3160   27.8728 H   0  0  0  0  0  0  0  0  0  0  0  0
   -9.4664  -24.5264   26.9010 H   0  0  0  0  0  0  0  0  0  0  0  0
  -11.9852  -25.0357   26.0668 H   0  0  0  0  0  0  0  0  0  0  0  0
  -10.6575  -24.1547   25.3458 H   0  0  0  0  0  0  0  0  0  0  0  0
  -10.6632  -21.6024   21.9353 H   0  0  0  0  0  0  0  0  0  0  0  0
  -14.3640  -23.5016   17.1752 H   0  0  0  0  0  0  0  0  0  0  0  0
  -14.2271  -25.8686   13.9188 H   0  0  0  0  0  0  0  0  0  0  0  0
  -13.1002  -28.3219   15.2437 H   0  0  0  0  0  0  0  0  0  0  0  0
  1  2  2  0
  2  3  1  0
  3  4  1  0
  4  5  1  0
  5  6  1  0
  6  7  2  0
  7  8  1  0
  8  9  2  0
  9 10  1  0
 10 11  1  0
 11 12  1  0
 12 13  1  0
 13 14  1  0
 14 15  1  0
  9 16  1  0
 16 17  2  0
  3 18  2  0
 18 19  1  0
 19 20  1  0
 20 21  2  0
 21 22  1  0
 22 23  2  0
 23  1  1  0
 17  6  1  0
 22 18  1  0
 15 10  1  0
  1 24  1  0
  2 25  1  0
  4 26  1  0
  4 27  1  0
  5 28  1  0
  7 29  1  0
 10 30  1  0
 11 31  1  0
 11 32  1  0
 12 33  1  0
 12 34  1  0
 14 35  1  0
 14 36  1  0
 15 37  1  0
 15 38  1  0
 17 39  1  0
 19 40  1  0
 21 41  1  0
 23 42  1  0
M  END
>  <Energy>  (364) 
248.49841350006477

>  <compound_id>  (364) 
5123

>  <target_id>  (364) 
1

>  <reference_id>  (364) 
112

>  <inspiration_ids>  (364) 
[54, 112]

>  <energy_score>  (364) 
151.69075328719055

>  <distance_score>  (364) 
5.261451034033359

>  <path>  (364) 
/opt/xchem-fragalysis-2/maxwin/BulkDock/SCRATCH/511018/C5123-P112/C5123-P112.minimised.mol

>  <scratch_subdir>  (364) 
/opt/xchem-fragalysis-2/maxwin/BulkDock/SCRATCH/511018/C5123-P112

>  <fragmenstein_runtime>  (364) 
10.093050956726074

>  <fragmenstein_outcome>  (364) 
too moved

>  <fragmenstein_mode>  (364) 
expansion

>  <fragmenstein_error>  (364) 


$$$$
C5129-P54
     RDKit          3D

 51 52  0  0  0  0  0  0  0  0999 V2000
  -11.0032  -27.7328   15.6469 C   0  0  0  0  0  0  0  0  0  0  0  0
  -12.4379  -28.2392   15.5442 C   0  0  0  0  0  0  0  0  0  0  0  0
  -13.4112  -27.8005   16.6910 C   0  0  0  0  0  0  0  0  0  0  0  0
  -13.0414  -28.6203   17.9224 C   0  0  0  0  0  0  0  0  0  0  0  0
  -13.4140  -26.2698   16.9913 C   0  0  0  0  0  0  0  0  0  0  0  0
  -13.9947  -25.7502   18.4016 C   0  0  0  0  0  0  0  0  0  0  0  0
  -13.3617  -24.5613   19.2355 N   0  0  0  0  0  0  0  0  0  0  0  0
  -12.6533  -24.0484   20.6548 C   0  0  0  0  0  0  0  0  0  0  0  0
  -12.4148  -22.5393   21.7670 C   0  0  0  0  0  0  0  0  0  0  0  0
  -11.2524  -21.9778   22.2746 C   0  0  0  0  0  0  0  0  0  0  0  0
  -10.8920  -21.9165   23.7047 N   0  0  0  0  0  0  0  0  0  0  0  0
  -11.8069  -22.1358   24.7035 C   0  0  0  0  0  0  0  0  0  0  0  0
  -11.6241  -22.5792   26.2127 C   0  0  0  0  0  0  0  0  0  0  0  0
  -11.0107  -21.7336   27.3420 C   0  0  0  0  0  0  0  0  0  0  0  0
  -11.3920  -22.2505   28.7370 C   0  0  0  0  0  0  0  0  0  0  0  0
  -11.5635  -23.6708   28.7720 O   0  0  0  0  0  0  0  0  0  0  0  0
  -10.7028  -24.3370   27.8555 C   0  0  0  0  0  0  0  0  0  0  0  0
  -11.1281  -24.0305   26.4124 C   0  0  0  0  0  0  0  0  0  0  0  0
  -13.0295  -22.3547   24.3189 N   0  0  0  0  0  0  0  0  0  0  0  0
  -13.1626  -22.6195   22.9948 C   0  0  0  0  0  0  0  0  0  0  0  0
  -14.1846  -25.5310   16.0251 O   0  0  0  0  0  0  0  0  0  0  0  0
  -14.0227  -25.7582   14.6425 C   0  0  0  0  0  0  0  0  0  0  0  0
  -10.5678  -27.9471   16.6267 H   0  0  0  0  0  0  0  0  0  0  0  0
  -10.3820  -28.2267   14.8922 H   0  0  0  0  0  0  0  0  0  0  0  0
  -10.9374  -26.6575   15.4614 H   0  0  0  0  0  0  0  0  0  0  0  0
  -12.8323  -27.9700   14.5628 H   0  0  0  0  0  0  0  0  0  0  0  0
  -12.4053  -29.3370   15.5195 H   0  0  0  0  0  0  0  0  0  0  0  0
  -14.4210  -28.1003   16.3821 H   0  0  0  0  0  0  0  0  0  0  0  0
  -12.1585  -28.2175   18.4268 H   0  0  0  0  0  0  0  0  0  0  0  0
  -12.8384  -29.6673   17.6719 H   0  0  0  0  0  0  0  0  0  0  0  0
  -13.8726  -28.6411   18.6296 H   0  0  0  0  0  0  0  0  0  0  0  0
  -12.3617  -26.0240   16.9895 H   0  0  0  0  0  0  0  0  0  0  0  0
  -15.0022  -25.4023   18.1381 H   0  0  0  0  0  0  0  0  0  0  0  0
  -14.0844  -26.6148   19.0649 H   0  0  0  0  0  0  0  0  0  0  0  0
  -12.8086  -25.3992   19.5549 H   0  0  0  0  0  0  0  0  0  0  0  0
  -11.6863  -24.5273   20.7059 H   0  0  0  0  0  0  0  0  0  0  0  0
  -13.3448  -24.6763   21.2552 H   0  0  0  0  0  0  0  0  0  0  0  0
  -10.4169  -21.7126   21.6260 H   0  0  0  0  0  0  0  0  0  0  0  0
  -12.6761  -22.6374   26.5358 H   0  0  0  0  0  0  0  0  0  0  0  0
   -9.9304  -21.8675   27.3095 H   0  0  0  0  0  0  0  0  0  0  0  0
  -11.2329  -20.6695   27.2627 H   0  0  0  0  0  0  0  0  0  0  0  0
  -12.3270  -21.8005   29.0784 H   0  0  0  0  0  0  0  0  0  0  0  0
  -10.6224  -21.9740   29.4665 H   0  0  0  0  0  0  0  0  0  0  0  0
   -9.6623  -24.0487   28.0453 H   0  0  0  0  0  0  0  0  0  0  0  0
  -10.7740  -25.4142   28.0386 H   0  0  0  0  0  0  0  0  0  0  0  0
  -10.3088  -24.2652   25.7337 H   0  0  0  0  0  0  0  0  0  0  0  0
  -11.9526  -24.7100   26.1612 H   0  0  0  0  0  0  0  0  0  0  0  0
  -14.0064  -23.2302   22.9863 H   0  0  0  0  0  0  0  0  0  0  0  0
  -14.5312  -24.9491   14.1138 H   0  0  0  0  0  0  0  0  0  0  0  0
  -12.9724  -25.7444   14.3443 H   0  0  0  0  0  0  0  0  0  0  0  0
  -14.5172  -26.6862   14.3465 H   0  0  0  0  0  0  0  0  0  0  0  0
  1  2  1  0
  2  3  1  0
  3  4  1  0
  3  5  1  0
  5  6  1  0
  6  7  1  0
  7  8  1  0
  8  9  1  0
  9 10  2  0
 10 11  1  0
 11 12  2  0
 12 13  1  0
 13 14  1  0
 14 15  1  0
 15 16  1  0
 16 17  1  0
 17 18  1  0
 12 19  1  0
 19 20  2  0
  5 21  1  0
 21 22  1  0
 20  9  1  0
 18 13  1  0
  1 23  1  0
  1 24  1  0
  1 25  1  0
  2 26  1  0
  2 27  1  0
  3 28  1  0
  4 29  1  0
  4 30  1  0
  4 31  1  0
  5 32  1  0
  6 33  1  0
  6 34  1  0
  7 35  1  0
  8 36  1  0
  8 37  1  0
 10 38  1  0
 13 39  1  0
 14 40  1  0
 14 41  1  0
 15 42  1  0
 15 43  1  0
 17 44  1  0
 17 45  1  0
 18 46  1  0
 18 47  1  0
 20 48  1  0
 22 49  1  0
 22 50  1  0
 22 51  1  0
M  END
>  <Energy>  (365) 
287.49361623940189

>  <compound_id>  (365) 
5129

>  <target_id>  (365) 
1

>  <reference_id>  (365) 
54

>  <inspiration_ids>  (365) 
[54, 112]

>  <energy_score>  (365) 
215.8315363997698

>  <distance_score>  (365) 
5.627238656478803

>  <path>  (365) 
/opt/xchem-fragalysis-2/maxwin/BulkDock/SCRATCH/511018/C5129-P54/C5129-P54.minimised.mol

>  <scratch_subdir>  (365) 
/opt/xchem-fragalysis-2/maxwin/BulkDock/SCRATCH/511018/C5129-P54

>  <fragmenstein_runtime>  (365) 
16.69185495376587

>  <fragmenstein_outcome>  (365) 
too moved

>  <fragmenstein_mode>  (365) 
expansion

>  <fragmenstein_error>  (365) 


$$$$
C5129-P112
     RDKit          3D

 51 52  0  0  0  0  0  0  0  0999 V2000
  -11.8028  -27.7996   15.6130 C   0  0  0  0  0  0  0  0  0  0  0  0
  -12.1498  -26.6397   16.5354 C   0  0  0  0  0  0  0  0  0  0  0  0
  -13.4906  -26.8070   17.2847 C   0  0  0  0  0  0  0  0  0  0  0  0
  -13.5074  -28.0469   18.1716 C   0  0  0  0  0  0  0  0  0  0  0  0
  -13.9835  -25.5002   18.0510 C   0  0  0  0  0  0  0  0  0  0  0  0
  -13.2963  -25.2854   19.5468 C   0  0  0  0  0  0  0  0  0  0  0  0
  -12.5534  -24.1366   20.3493 N   0  0  0  0  0  0  0  0  0  0  0  0
  -12.5050  -22.8402   21.3690 C   0  0  0  0  0  0  0  0  0  0  0  0
  -12.9205  -22.5398   22.9588 C   0  0  0  0  0  0  0  0  0  0  0  0
  -12.1559  -21.6093   23.5977 C   0  0  0  0  0  0  0  0  0  0  0  0
  -12.0537  -21.5273   24.9397 N   0  0  0  0  0  0  0  0  0  0  0  0
  -12.4882  -22.5357   25.7471 C   0  0  0  0  0  0  0  0  0  0  0  0
  -11.6911  -22.7817   27.0559 C   0  0  0  0  0  0  0  0  0  0  0  0
  -11.4067  -21.5506   27.7506 C   0  0  0  0  0  0  0  0  0  0  0  0
  -11.3655  -21.0969   29.2185 C   0  0  0  0  0  0  0  0  0  0  0  0
  -11.3809  -21.9803   30.2350 O   0  0  0  0  0  0  0  0  0  0  0  0
  -12.5006  -22.5266   29.7474 C   0  0  0  0  0  0  0  0  0  0  0  0
  -12.0860  -23.4388   28.2789 C   0  0  0  0  0  0  0  0  0  0  0  0
  -13.3878  -23.3838   25.2880 N   0  0  0  0  0  0  0  0  0  0  0  0
  -13.6490  -23.2688   23.9346 C   0  0  0  0  0  0  0  0  0  0  0  0
  -13.8961  -24.3738   17.1837 O   0  0  0  0  0  0  0  0  0  0  0  0
  -14.7747  -24.4653   16.0558 C   0  0  0  0  0  0  0  0  0  0  0  0
  -12.6034  -27.9786   14.8886 H   0  0  0  0  0  0  0  0  0  0  0  0
  -10.8866  -27.5749   15.0571 H   0  0  0  0  0  0  0  0  0  0  0  0
  -11.6293  -28.7218   16.1742 H   0  0  0  0  0  0  0  0  0  0  0  0
  -11.3376  -26.5145   17.2512 H   0  0  0  0  0  0  0  0  0  0  0  0
  -12.1803  -25.7417   15.9167 H   0  0  0  0  0  0  0  0  0  0  0  0
  -14.2442  -27.0216   16.5175 H   0  0  0  0  0  0  0  0  0  0  0  0
  -12.6582  -28.0777   18.8563 H   0  0  0  0  0  0  0  0  0  0  0  0
  -13.4745  -28.9616   17.5706 H   0  0  0  0  0  0  0  0  0  0  0  0
  -14.4270  -28.0894   18.7650 H   0  0  0  0  0  0  0  0  0  0  0  0
  -15.0463  -25.6759   18.2413 H   0  0  0  0  0  0  0  0  0  0  0  0
  -12.3977  -25.8242   19.2531 H   0  0  0  0  0  0  0  0  0  0  0  0
  -13.8179  -25.9846   20.1949 H   0  0  0  0  0  0  0  0  0  0  0  0
  -12.6367  -23.4990   19.5672 H   0  0  0  0  0  0  0  0  0  0  0  0
  -12.4126  -21.9706   20.7553 H   0  0  0  0  0  0  0  0  0  0  0  0
  -11.4302  -22.8134   21.5109 H   0  0  0  0  0  0  0  0  0  0  0  0
  -11.4985  -20.9365   23.0554 H   0  0  0  0  0  0  0  0  0  0  0  0
  -10.8337  -23.3707   26.7155 H   0  0  0  0  0  0  0  0  0  0  0  0
  -10.5192  -21.1818   27.3324 H   0  0  0  0  0  0  0  0  0  0  0  0
  -12.2496  -20.9929   27.4063 H   0  0  0  0  0  0  0  0  0  0  0  0
  -12.1923  -20.3710   29.3327 H   0  0  0  0  0  0  0  0  0  0  0  0
  -10.5433  -20.5269   29.4744 H   0  0  0  0  0  0  0  0  0  0  0  0
  -13.0076  -23.1030   30.4931 H   0  0  0  0  0  0  0  0  0  0  0  0
  -13.2300  -21.6958   29.7220 H   0  0  0  0  0  0  0  0  0  0  0  0
  -11.1596  -23.9860   28.5200 H   0  0  0  0  0  0  0  0  0  0  0  0
  -12.8510  -24.0705   27.8475 H   0  0  0  0  0  0  0  0  0  0  0  0
  -14.2514  -24.1258   23.7244 H   0  0  0  0  0  0  0  0  0  0  0  0
  -14.6565  -25.3885   15.4883 H   0  0  0  0  0  0  0  0  0  0  0  0
  -15.8134  -24.3558   16.3794 H   0  0  0  0  0  0  0  0  0  0  0  0
  -14.5218  -23.6713   15.3552 H   0  0  0  0  0  0  0  0  0  0  0  0
  1  2  1  0
  2  3  1  0
  3  4  1  0
  3  5  1  0
  5  6  1  0
  6  7  1  0
  7  8  1  0
  8  9  1  0
  9 10  2  0
 10 11  1  0
 11 12  2  0
 12 13  1  0
 13 14  1  0
 14 15  1  0
 15 16  1  0
 16 17  1  0
 17 18  1  0
 12 19  1  0
 19 20  2  0
  5 21  1  0
 21 22  1  0
 20  9  1  0
 18 13  1  0
  1 23  1  0
  1 24  1  0
  1 25  1  0
  2 26  1  0
  2 27  1  0
  3 28  1  0
  4 29  1  0
  4 30  1  0
  4 31  1  0
  5 32  1  0
  6 33  1  0
  6 34  1  0
  7 35  1  0
  8 36  1  0
  8 37  1  0
 10 38  1  0
 13 39  1  0
 14 40  1  0
 14 41  1  0
 15 42  1  0
 15 43  1  0
 17 44  1  0
 17 45  1  0
 18 46  1  0
 18 47  1  0
 20 48  1  0
 22 49  1  0
 22 50  1  0
 22 51  1  0
M  END
>  <Energy>  (366) 
307.87562428366186

>  <compound_id>  (366) 
5129

>  <target_id>  (366) 
1

>  <reference_id>  (366) 
112

>  <inspiration_ids>  (366) 
[54, 112]

>  <energy_score>  (366) 
236.2135444440279

>  <distance_score>  (366) 
5.317413087783586

>  <path>  (366) 
/opt/xchem-fragalysis-2/maxwin/BulkDock/SCRATCH/511018/C5129-P112/C5129-P112.minimised.mol

>  <scratch_subdir>  (366) 
/opt/xchem-fragalysis-2/maxwin/BulkDock/SCRATCH/511018/C5129-P112

>  <fragmenstein_runtime>  (366) 
16.67447566986084

>  <fragmenstein_outcome>  (366) 
too moved

>  <fragmenstein_mode>  (366) 
expansion

>  <fragmenstein_error>  (366) 


$$$$
C5141-P54
     RDKit          3D

 45 46  0  0  0  0  0  0  0  0999 V2000
   -8.8858  -22.4652   23.5189 C   0  0  0  0  0  0  0  0  0  0  0  0
  -10.2493  -22.0345   23.0698 C   0  0  0  0  0  0  0  0  0  0  0  0
  -11.0747  -22.2145   24.2880 N   0  0  0  0  0  0  0  0  0  0  0  0
  -12.4935  -22.3016   24.4599 C   0  0  0  0  0  0  0  0  0  0  0  0
  -13.3845  -22.1695   23.6761 O   0  0  0  0  0  0  0  0  0  0  0  0
  -12.7514  -22.7381   25.9152 C   0  0  0  0  0  0  0  0  0  0  0  0
  -11.6950  -22.2489   26.8022 N   0  0  0  0  0  0  0  0  0  0  0  0
  -11.5386  -22.8905   28.0055 C   0  0  0  0  0  0  0  0  0  0  0  0
  -11.5144  -24.2289   28.0445 N   0  0  0  0  0  0  0  0  0  0  0  0
  -11.2113  -24.7876   29.2286 C   0  0  0  0  0  0  0  0  0  0  0  0
  -10.9432  -24.0659   30.3630 C   0  0  0  0  0  0  0  0  0  0  0  0
  -11.0373  -22.7055   30.2273 C   0  0  0  0  0  0  0  0  0  0  0  0
  -11.3270  -22.1022   29.0619 N   0  0  0  0  0  0  0  0  0  0  0  0
  -10.0671  -21.1488   21.7650 C   0  0  0  0  0  0  0  0  0  0  0  0
  -11.4778  -20.7528   21.7537 C   0  0  0  0  0  0  0  0  0  0  0  0
   -9.8488  -21.6118   20.1932 N   0  0  0  0  0  0  0  0  0  0  0  0
   -9.1987  -20.7649   18.8574 C   0  0  0  0  0  0  0  0  0  0  0  0
   -8.6823  -19.6528   18.8378 O   0  0  0  0  0  0  0  0  0  0  0  0
   -9.2489  -21.4329   17.1874 C   0  0  0  0  0  0  0  0  0  0  0  0
   -9.7427  -22.7485   15.8393 C   0  0  0  0  0  0  0  0  0  0  0  0
   -9.3881  -24.0363   15.4346 C   0  0  0  0  0  0  0  0  0  0  0  0
   -9.9442  -24.4913   14.2350 C   0  0  0  0  0  0  0  0  0  0  0  0
  -10.4653  -23.4571   13.6311 N   0  0  0  0  0  0  0  0  0  0  0  0
  -10.2679  -22.4841   14.5502 N   0  0  0  0  0  0  0  0  0  0  0  0
   -8.3811  -23.0747   22.8400 H   0  0  0  0  0  0  0  0  0  0  0  0
   -8.9199  -23.0975   24.3966 H   0  0  0  0  0  0  0  0  0  0  0  0
   -8.1653  -21.6678   23.5370 H   0  0  0  0  0  0  0  0  0  0  0  0
  -10.9450  -22.6906   22.5983 H   0  0  0  0  0  0  0  0  0  0  0  0
  -10.6184  -22.4684   25.1645 H   0  0  0  0  0  0  0  0  0  0  0  0
  -12.7630  -23.8347   25.8970 H   0  0  0  0  0  0  0  0  0  0  0  0
  -13.7574  -22.4337   26.1814 H   0  0  0  0  0  0  0  0  0  0  0  0
  -11.8021  -21.2502   26.9808 H   0  0  0  0  0  0  0  0  0  0  0  0
  -11.1824  -25.8724   29.2343 H   0  0  0  0  0  0  0  0  0  0  0  0
  -10.6824  -24.5301   31.3016 H   0  0  0  0  0  0  0  0  0  0  0  0
  -10.8731  -22.0383   31.0697 H   0  0  0  0  0  0  0  0  0  0  0  0
   -9.2553  -20.5195   22.0596 H   0  0  0  0  0  0  0  0  0  0  0  0
  -11.6890  -20.2035   20.8745 H   0  0  0  0  0  0  0  0  0  0  0  0
  -12.0947  -21.6459   21.6330 H   0  0  0  0  0  0  0  0  0  0  0  0
  -11.7459  -20.2418   22.6748 H   0  0  0  0  0  0  0  0  0  0  0  0
  -10.1147  -22.5066   19.9137 H   0  0  0  0  0  0  0  0  0  0  0  0
   -8.1810  -21.2481   17.0603 H   0  0  0  0  0  0  0  0  0  0  0  0
   -9.6981  -20.5373   16.7987 H   0  0  0  0  0  0  0  0  0  0  0  0
   -8.7179  -24.6067   15.9868 H   0  0  0  0  0  0  0  0  0  0  0  0
   -9.8874  -25.4545   13.7492 H   0  0  0  0  0  0  0  0  0  0  0  0
  -10.7595  -21.6482   14.3436 H   0  0  0  0  0  0  0  0  0  0  0  0
  1  2  1  0
  2  3  1  0
  3  4  1  0
  4  5  2  0
  4  6  1  0
  6  7  1  0
  7  8  1  0
  8  9  2  0
  9 10  1  0
 10 11  2  0
 11 12  1  0
 12 13  2  0
  2 14  1  0
 14 15  1  0
 14 16  1  0
 16 17  1  0
 17 18  2  0
 17 19  1  0
 19 20  1  0
 20 21  2  0
 21 22  1  0
 22 23  2  0
 23 24  1  0
 13  8  1  0
 24 20  1  0
  1 25  1  0
  1 26  1  0
  1 27  1  0
  2 28  1  0
  3 29  1  0
  6 30  1  0
  6 31  1  0
  7 32  1  0
 10 33  1  0
 11 34  1  0
 12 35  1  0
 14 36  1  0
 15 37  1  0
 15 38  1  0
 15 39  1  0
 16 40  1  0
 19 41  1  0
 19 42  1  0
 21 43  1  0
 22 44  1  0
 24 45  1  0
M  END
>  <Energy>  (367) 
244.03751912758412

>  <compound_id>  (367) 
5141

>  <target_id>  (367) 
1

>  <reference_id>  (367) 
54

>  <inspiration_ids>  (367) 
[54, 112]

>  <energy_score>  (367) 
230.1728405143595

>  <distance_score>  (367) 
5.727589748188004

>  <path>  (367) 
/opt/xchem-fragalysis-2/maxwin/BulkDock/SCRATCH/511018/C5141-P54/C5141-P54.minimised.mol

>  <scratch_subdir>  (367) 
/opt/xchem-fragalysis-2/maxwin/BulkDock/SCRATCH/511018/C5141-P54

>  <fragmenstein_runtime>  (367) 
24.623131275177002

>  <fragmenstein_outcome>  (367) 
too moved

>  <fragmenstein_mode>  (367) 
expansion

>  <fragmenstein_error>  (367) 


$$$$
C5141-P112
     RDKit          3D

 45 46  0  0  0  0  0  0  0  0999 V2000
  -12.1392  -22.0589   29.5889 C   0  0  0  0  0  0  0  0  0  0  0  0
  -12.1333  -22.7502   28.2090 C   0  0  0  0  0  0  0  0  0  0  0  0
  -12.9280  -24.0120   27.3078 N   0  0  0  0  0  0  0  0  0  0  0  0
  -13.7024  -23.9664   26.0292 C   0  0  0  0  0  0  0  0  0  0  0  0
  -14.0376  -23.0389   25.3534 O   0  0  0  0  0  0  0  0  0  0  0  0
  -14.0320  -25.3844   25.5410 C   0  0  0  0  0  0  0  0  0  0  0  0
  -13.3604  -26.3460   26.4210 N   0  0  0  0  0  0  0  0  0  0  0  0
  -14.2272  -27.4080   26.5667 C   0  0  0  0  0  0  0  0  0  0  0  0
  -14.0006  -28.4876   25.8140 N   0  0  0  0  0  0  0  0  0  0  0  0
  -14.9846  -29.4029   25.8285 C   0  0  0  0  0  0  0  0  0  0  0  0
  -16.1794  -29.2345   26.4847 C   0  0  0  0  0  0  0  0  0  0  0  0
  -16.3065  -28.0702   27.1954 C   0  0  0  0  0  0  0  0  0  0  0  0
  -15.3299  -27.1580   27.2916 N   0  0  0  0  0  0  0  0  0  0  0  0
  -10.8461  -23.3604   27.8711 C   0  0  0  0  0  0  0  0  0  0  0  0
   -9.4120  -23.6150   27.9461 C   0  0  0  0  0  0  0  0  0  0  0  0
  -11.1250  -23.0035   26.5919 N   0  0  0  0  0  0  0  0  0  0  0  0
  -11.0490  -23.6894   25.4508 C   0  0  0  0  0  0  0  0  0  0  0  0
  -10.6416  -24.7735   25.2283 O   0  0  0  0  0  0  0  0  0  0  0  0
  -11.8730  -22.5040   24.3590 C   0  0  0  0  0  0  0  0  0  0  0  0
  -11.3728  -22.0634   23.0909 C   0  0  0  0  0  0  0  0  0  0  0  0
  -10.2144  -21.6634   22.5365 C   0  0  0  0  0  0  0  0  0  0  0  0
  -10.4681  -21.6608   21.1767 C   0  0  0  0  0  0  0  0  0  0  0  0
  -11.7017  -22.0010   20.8969 N   0  0  0  0  0  0  0  0  0  0  0  0
  -12.2383  -22.1578   22.0645 N   0  0  0  0  0  0  0  0  0  0  0  0
  -12.6196  -22.5544   30.4140 H   0  0  0  0  0  0  0  0  0  0  0  0
  -11.1414  -21.7418   29.8675 H   0  0  0  0  0  0  0  0  0  0  0  0
  -12.6763  -21.1051   29.5153 H   0  0  0  0  0  0  0  0  0  0  0  0
  -12.5156  -21.8779   27.6643 H   0  0  0  0  0  0  0  0  0  0  0  0
  -12.7531  -24.9878   27.5625 H   0  0  0  0  0  0  0  0  0  0  0  0
  -13.7571  -25.4864   24.5036 H   0  0  0  0  0  0  0  0  0  0  0  0
  -15.1285  -25.4748   25.5154 H   0  0  0  0  0  0  0  0  0  0  0  0
  -12.4957  -26.6970   26.0214 H   0  0  0  0  0  0  0  0  0  0  0  0
  -14.7955  -30.3104   25.2630 H   0  0  0  0  0  0  0  0  0  0  0  0
  -16.9655  -29.9761   26.4494 H   0  0  0  0  0  0  0  0  0  0  0  0
  -17.2228  -27.8378   27.7307 H   0  0  0  0  0  0  0  0  0  0  0  0
  -11.0398  -24.4334   27.9492 H   0  0  0  0  0  0  0  0  0  0  0  0
   -9.0552  -24.0362   27.0068 H   0  0  0  0  0  0  0  0  0  0  0  0
   -9.3160  -24.4480   28.6238 H   0  0  0  0  0  0  0  0  0  0  0  0
   -8.7021  -22.8231   28.1649 H   0  0  0  0  0  0  0  0  0  0  0  0
  -11.6088  -22.1330   26.4137 H   0  0  0  0  0  0  0  0  0  0  0  0
  -12.1837  -21.5919   24.8864 H   0  0  0  0  0  0  0  0  0  0  0  0
  -12.7958  -22.9517   24.0301 H   0  0  0  0  0  0  0  0  0  0  0  0
   -9.2272  -21.6960   22.9217 H   0  0  0  0  0  0  0  0  0  0  0  0
   -9.7506  -21.4831   20.4019 H   0  0  0  0  0  0  0  0  0  0  0  0
  -13.2043  -22.4582   22.0933 H   0  0  0  0  0  0  0  0  0  0  0  0
  1  2  1  0
  2  3  1  0
  3  4  1  0
  4  5  2  0
  4  6  1  0
  6  7  1  0
  7  8  1  0
  8  9  2  0
  9 10  1  0
 10 11  2  0
 11 12  1  0
 12 13  2  0
  2 14  1  0
 14 15  1  0
 14 16  1  0
 16 17  1  0
 17 18  2  0
 17 19  1  0
 19 20  1  0
 20 21  2  0
 21 22  1  0
 22 23  2  0
 23 24  1  0
 13  8  1  0
 24 20  1  0
  1 25  1  0
  1 26  1  0
  1 27  1  0
  2 28  1  0
  3 29  1  0
  6 30  1  0
  6 31  1  0
  7 32  1  0
 10 33  1  0
 11 34  1  0
 12 35  1  0
 14 36  1  0
 15 37  1  0
 15 38  1  0
 15 39  1  0
 16 40  1  0
 19 41  1  0
 19 42  1  0
 21 43  1  0
 22 44  1  0
 24 45  1  0
M  END
>  <Energy>  (368) 
212.52519066561268

>  <compound_id>  (368) 
5141

>  <target_id>  (368) 
1

>  <reference_id>  (368) 
112

>  <inspiration_ids>  (368) 
[54, 112]

>  <energy_score>  (368) 
198.6605120523916

>  <distance_score>  (368) 
8.691821985046492

>  <path>  (368) 
/opt/xchem-fragalysis-2/maxwin/BulkDock/SCRATCH/511018/C5141-P112/C5141-P112.minimised.mol

>  <scratch_subdir>  (368) 
/opt/xchem-fragalysis-2/maxwin/BulkDock/SCRATCH/511018/C5141-P112

>  <fragmenstein_runtime>  (368) 
36.69843888282776

>  <fragmenstein_outcome>  (368) 
too moved

>  <fragmenstein_mode>  (368) 
expansion

>  <fragmenstein_error>  (368) 


$$$$
C5142-P54
     RDKit          3D

 40 42  0  0  0  0  0  0  0  0999 V2000
  -11.9576  -20.2748   23.8987 O   0  0  0  0  0  0  0  0  0  0  0  0
  -11.7223  -21.4408   23.7709 C   0  0  0  0  0  0  0  0  0  0  0  0
  -11.0046  -21.9702   22.5295 C   0  0  0  0  0  0  0  0  0  0  0  0
  -10.4641  -21.6247   21.1128 C   0  0  0  0  0  0  0  0  0  0  0  0
  -10.0643  -22.7872   20.0263 C   0  0  0  0  0  0  0  0  0  0  0  0
   -9.7725  -22.4196   18.1381 C   0  0  0  0  0  0  0  0  0  0  0  0
  -10.1052  -23.7148   16.6875 N   0  0  0  0  0  0  0  0  0  0  0  0
  -10.9860  -25.4606   17.1046 C   0  0  0  0  0  0  0  0  0  0  0  0
  -11.0035  -26.0514   18.9030 N   0  0  0  0  0  0  0  0  0  0  0  0
  -10.6564  -24.6971   20.3064 C   0  0  0  0  0  0  0  0  0  0  0  0
  -12.1085  -22.6114   24.6280 N   0  0  0  0  0  0  0  0  0  0  0  0
  -12.9930  -22.6823   25.8302 C   0  0  0  0  0  0  0  0  0  0  0  0
  -13.2726  -24.0117   26.5540 C   0  0  0  0  0  0  0  0  0  0  0  0
  -12.1036  -24.1697   27.5036 C   0  0  0  0  0  0  0  0  0  0  0  0
  -12.1588  -25.3388   28.4076 C   0  0  0  0  0  0  0  0  0  0  0  0
  -12.5315  -26.6511   28.2355 C   0  0  0  0  0  0  0  0  0  0  0  0
  -12.4105  -27.2274   29.5129 C   0  0  0  0  0  0  0  0  0  0  0  0
  -11.9951  -26.3522   30.4299 N   0  0  0  0  0  0  0  0  0  0  0  0
  -11.8064  -25.2242   29.7308 N   0  0  0  0  0  0  0  0  0  0  0  0
  -10.9178  -24.1571   26.5743 C   0  0  0  0  0  0  0  0  0  0  0  0
  -11.0083  -22.8795   25.6968 C   0  0  0  0  0  0  0  0  0  0  0  0
  -10.1199  -22.3068   23.0662 H   0  0  0  0  0  0  0  0  0  0  0  0
  -11.8047  -22.6015   22.2014 H   0  0  0  0  0  0  0  0  0  0  0  0
  -11.1931  -20.9709   20.6527 H   0  0  0  0  0  0  0  0  0  0  0  0
   -9.5147  -21.1455   21.2852 H   0  0  0  0  0  0  0  0  0  0  0  0
   -9.2741  -21.4723   17.7499 H   0  0  0  0  0  0  0  0  0  0  0  0
  -10.9991  -26.2136   16.3134 H   0  0  0  0  0  0  0  0  0  0  0  0
  -11.6804  -24.6382   20.7564 H   0  0  0  0  0  0  0  0  0  0  0  0
  -13.9628  -22.3776   25.4124 H   0  0  0  0  0  0  0  0  0  0  0  0
  -12.7413  -21.9344   26.5774 H   0  0  0  0  0  0  0  0  0  0  0  0
  -13.3686  -24.8420   25.8446 H   0  0  0  0  0  0  0  0  0  0  0  0
  -14.2117  -23.9536   27.1156 H   0  0  0  0  0  0  0  0  0  0  0  0
  -12.0527  -23.2784   28.1480 H   0  0  0  0  0  0  0  0  0  0  0  0
  -12.8690  -27.1278   27.3273 H   0  0  0  0  0  0  0  0  0  0  0  0
  -12.6186  -28.2460   29.8178 H   0  0  0  0  0  0  0  0  0  0  0  0
  -11.4730  -24.4012   30.2276 H   0  0  0  0  0  0  0  0  0  0  0  0
  -10.8758  -25.0605   25.9562 H   0  0  0  0  0  0  0  0  0  0  0  0
   -9.9928  -24.1307   27.1617 H   0  0  0  0  0  0  0  0  0  0  0  0
  -10.1056  -22.9516   25.0872 H   0  0  0  0  0  0  0  0  0  0  0  0
  -10.8643  -22.0140   26.3565 H   0  0  0  0  0  0  0  0  0  0  0  0
  1  2  2  0
  2  3  1  0
  3  4  1  0
  4  5  1  0
  5  6  2  0
  6  7  1  0
  7  8  2  0
  8  9  1  0
  9 10  2  0
  2 11  1  0
 11 12  1  0
 12 13  1  0
 13 14  1  0
 14 15  1  0
 15 16  2  0
 16 17  1  0
 17 18  2  0
 18 19  1  0
 14 20  1  0
 20 21  1  0
 10  5  1  0
 21 11  1  0
 19 15  1  0
  3 22  1  0
  3 23  1  0
  4 24  1  0
  4 25  1  0
  6 26  1  0
  8 27  1  0
 10 28  1  0
 12 29  1  0
 12 30  1  0
 13 31  1  0
 13 32  1  0
 14 33  1  0
 16 34  1  0
 17 35  1  0
 19 36  1  0
 20 37  1  0
 20 38  1  0
 21 39  1  0
 21 40  1  0
M  END
>  <Energy>  (369) 
794.52409318606249

>  <compound_id>  (369) 
5142

>  <target_id>  (369) 
1

>  <reference_id>  (369) 
54

>  <inspiration_ids>  (369) 
[54, 112]

>  <energy_score>  (369) 
780.3706719853134

>  <distance_score>  (369) 
5.688574188200919

>  <path>  (369) 
/opt/xchem-fragalysis-2/maxwin/BulkDock/SCRATCH/511018/C5142-P54/C5142-P54.minimised.mol

>  <scratch_subdir>  (369) 
/opt/xchem-fragalysis-2/maxwin/BulkDock/SCRATCH/511018/C5142-P54

>  <fragmenstein_runtime>  (369) 
19.053468942642212

>  <fragmenstein_outcome>  (369) 
too moved

>  <fragmenstein_mode>  (369) 
expansion

>  <fragmenstein_error>  (369) 


$$$$
C5142-P112
     RDKit          3D

 40 42  0  0  0  0  0  0  0  0999 V2000
  -11.6974  -20.2896   21.6309 O   0  0  0  0  0  0  0  0  0  0  0  0
  -11.3368  -21.3986   21.7338 C   0  0  0  0  0  0  0  0  0  0  0  0
  -10.0240  -21.6629   20.7207 C   0  0  0  0  0  0  0  0  0  0  0  0
   -9.1441  -20.6395   19.3361 C   0  0  0  0  0  0  0  0  0  0  0  0
   -8.3385  -20.3871   17.7489 C   0  0  0  0  0  0  0  0  0  0  0  0
   -7.1827  -19.5913   17.6760 C   0  0  0  0  0  0  0  0  0  0  0  0
   -6.5768  -19.1337   16.5502 N   0  0  0  0  0  0  0  0  0  0  0  0
   -7.1201  -19.5216   15.3972 C   0  0  0  0  0  0  0  0  0  0  0  0
   -8.1993  -20.2781   15.2699 N   0  0  0  0  0  0  0  0  0  0  0  0
   -8.7479  -20.6857   16.4479 C   0  0  0  0  0  0  0  0  0  0  0  0
  -11.8511  -22.4376   22.6963 N   0  0  0  0  0  0  0  0  0  0  0  0
  -13.0676  -22.3908   23.7405 C   0  0  0  0  0  0  0  0  0  0  0  0
  -13.4150  -23.3368   24.9811 C   0  0  0  0  0  0  0  0  0  0  0  0
  -12.3138  -23.7573   25.9830 C   0  0  0  0  0  0  0  0  0  0  0  0
  -12.0008  -23.0314   27.2089 C   0  0  0  0  0  0  0  0  0  0  0  0
  -11.1565  -23.2502   28.2721 C   0  0  0  0  0  0  0  0  0  0  0  0
  -11.4806  -22.2253   29.1797 C   0  0  0  0  0  0  0  0  0  0  0  0
  -12.2500  -21.3239   28.6236 N   0  0  0  0  0  0  0  0  0  0  0  0
  -12.2472  -21.7371   27.3597 N   0  0  0  0  0  0  0  0  0  0  0  0
  -11.0037  -23.6772   25.2801 C   0  0  0  0  0  0  0  0  0  0  0  0
  -11.0985  -22.4118   23.9041 C   0  0  0  0  0  0  0  0  0  0  0  0
  -10.1709  -22.6489   20.4508 H   0  0  0  0  0  0  0  0  0  0  0  0
   -9.2866  -21.6175   21.5067 H   0  0  0  0  0  0  0  0  0  0  0  0
   -8.4669  -20.0626   19.9766 H   0  0  0  0  0  0  0  0  0  0  0  0
   -9.8396  -19.9238   19.0060 H   0  0  0  0  0  0  0  0  0  0  0  0
   -6.6843  -19.2398   18.5780 H   0  0  0  0  0  0  0  0  0  0  0  0
   -6.6359  -19.1878   14.4887 H   0  0  0  0  0  0  0  0  0  0  0  0
   -9.5088  -21.4091   16.2395 H   0  0  0  0  0  0  0  0  0  0  0  0
  -13.1751  -21.3570   24.0807 H   0  0  0  0  0  0  0  0  0  0  0  0
  -13.9185  -22.5386   23.0895 H   0  0  0  0  0  0  0  0  0  0  0  0
  -13.8298  -24.2613   24.5478 H   0  0  0  0  0  0  0  0  0  0  0  0
  -14.2982  -22.9515   25.4809 H   0  0  0  0  0  0  0  0  0  0  0  0
  -12.5227  -24.7954   26.2782 H   0  0  0  0  0  0  0  0  0  0  0  0
  -10.5440  -24.1267   28.4049 H   0  0  0  0  0  0  0  0  0  0  0  0
  -11.2886  -22.0677   30.2215 H   0  0  0  0  0  0  0  0  0  0  0  0
  -12.5859  -21.1357   26.6261 H   0  0  0  0  0  0  0  0  0  0  0  0
  -10.2360  -23.6502   26.0483 H   0  0  0  0  0  0  0  0  0  0  0  0
  -10.6092  -24.6604   25.0295 H   0  0  0  0  0  0  0  0  0  0  0  0
  -10.0608  -22.3784   23.5458 H   0  0  0  0  0  0  0  0  0  0  0  0
  -11.2768  -21.3659   24.2643 H   0  0  0  0  0  0  0  0  0  0  0  0
  1  2  2  0
  2  3  1  0
  3  4  1  0
  4  5  1  0
  5  6  2  0
  6  7  1  0
  7  8  2  0
  8  9  1  0
  9 10  2  0
  2 11  1  0
 11 12  1  0
 12 13  1  0
 13 14  1  0
 14 15  1  0
 15 16  2  0
 16 17  1  0
 17 18  2  0
 18 19  1  0
 14 20  1  0
 20 21  1  0
 10  5  1  0
 21 11  1  0
 19 15  1  0
  3 22  1  0
  3 23  1  0
  4 24  1  0
  4 25  1  0
  6 26  1  0
  8 27  1  0
 10 28  1  0
 12 29  1  0
 12 30  1  0
 13 31  1  0
 13 32  1  0
 14 33  1  0
 16 34  1  0
 17 35  1  0
 19 36  1  0
 20 37  1  0
 20 38  1  0
 21 39  1  0
 21 40  1  0
M  END
>  <Energy>  (370) 
292.97582218807207

>  <compound_id>  (370) 
5142

>  <target_id>  (370) 
1

>  <reference_id>  (370) 
112

>  <inspiration_ids>  (370) 
[54, 112]

>  <energy_score>  (370) 
278.822400987319

>  <distance_score>  (370) 
7.114689079347308

>  <path>  (370) 
/opt/xchem-fragalysis-2/maxwin/BulkDock/SCRATCH/511018/C5142-P112/C5142-P112.minimised.mol

>  <scratch_subdir>  (370) 
/opt/xchem-fragalysis-2/maxwin/BulkDock/SCRATCH/511018/C5142-P112

>  <fragmenstein_runtime>  (370) 
22.392138481140137

>  <fragmenstein_outcome>  (370) 
too moved

>  <fragmenstein_mode>  (370) 
expansion

>  <fragmenstein_error>  (370) 


$$$$
C5143-P54
     RDKit          3D

 40 42  0  0  0  0  0  0  0  0999 V2000
   -8.9362  -28.2864   25.4934 O   0  0  0  0  0  0  0  0  0  0  0  0
   -9.8670  -27.5857   25.1501 C   0  0  0  0  0  0  0  0  0  0  0  0
  -10.5849  -27.2885   23.4524 C   0  0  0  0  0  0  0  0  0  0  0  0
  -10.4644  -27.9422   21.3910 C   0  0  0  0  0  0  0  0  0  0  0  0
  -11.3341  -28.2381   19.5144 C   0  0  0  0  0  0  0  0  0  0  0  0
  -11.6657  -29.5872   19.0846 C   0  0  0  0  0  0  0  0  0  0  0  0
  -12.2044  -29.9761   17.9022 N   0  0  0  0  0  0  0  0  0  0  0  0
  -12.3660  -29.0100   17.0020 C   0  0  0  0  0  0  0  0  0  0  0  0
  -12.0052  -27.7458   17.1801 N   0  0  0  0  0  0  0  0  0  0  0  0
  -11.4607  -27.4379   18.3938 C   0  0  0  0  0  0  0  0  0  0  0  0
  -10.5866  -26.8892   26.1959 N   0  0  0  0  0  0  0  0  0  0  0  0
  -10.1222  -25.5713   26.5616 C   0  0  0  0  0  0  0  0  0  0  0  0
  -10.3787  -25.0346   27.9762 C   0  0  0  0  0  0  0  0  0  0  0  0
  -11.5195  -25.6924   28.7341 C   0  0  0  0  0  0  0  0  0  0  0  0
  -12.4985  -26.3988   27.8028 C   0  0  0  0  0  0  0  0  0  0  0  0
  -13.3299  -25.4296   27.0026 C   0  0  0  0  0  0  0  0  0  0  0  0
  -13.1585  -24.1180   26.6041 C   0  0  0  0  0  0  0  0  0  0  0  0
  -14.2860  -23.8144   25.8280 C   0  0  0  0  0  0  0  0  0  0  0  0
  -15.1303  -24.8410   25.7491 N   0  0  0  0  0  0  0  0  0  0  0  0
  -14.5733  -25.7732   26.5361 N   0  0  0  0  0  0  0  0  0  0  0  0
  -11.7449  -27.4216   26.9081 C   0  0  0  0  0  0  0  0  0  0  0  0
  -11.4946  -27.6798   23.9736 H   0  0  0  0  0  0  0  0  0  0  0  0
  -11.0196  -26.4341   24.0160 H   0  0  0  0  0  0  0  0  0  0  0  0
   -9.8776  -27.1307   21.0459 H   0  0  0  0  0  0  0  0  0  0  0  0
  -10.3097  -29.1155   21.3051 H   0  0  0  0  0  0  0  0  0  0  0  0
  -11.5269  -30.4344   19.7573 H   0  0  0  0  0  0  0  0  0  0  0  0
  -12.8037  -29.2783   16.0484 H   0  0  0  0  0  0  0  0  0  0  0  0
  -11.0345  -26.4871   18.3409 H   0  0  0  0  0  0  0  0  0  0  0  0
  -10.4633  -24.8528   25.8152 H   0  0  0  0  0  0  0  0  0  0  0  0
   -9.0495  -25.6794   26.4893 H   0  0  0  0  0  0  0  0  0  0  0  0
   -9.4608  -25.0961   28.5677 H   0  0  0  0  0  0  0  0  0  0  0  0
  -10.5448  -23.9525   27.9112 H   0  0  0  0  0  0  0  0  0  0  0  0
  -11.1049  -26.4372   29.4242 H   0  0  0  0  0  0  0  0  0  0  0  0
  -12.0282  -24.9507   29.3622 H   0  0  0  0  0  0  0  0  0  0  0  0
  -13.1960  -26.9706   28.4313 H   0  0  0  0  0  0  0  0  0  0  0  0
  -12.3410  -23.4442   26.8106 H   0  0  0  0  0  0  0  0  0  0  0  0
  -14.5178  -22.8870   25.3187 H   0  0  0  0  0  0  0  0  0  0  0  0
  -15.0926  -26.6313   26.6935 H   0  0  0  0  0  0  0  0  0  0  0  0
  -11.3725  -28.2441   27.5307 H   0  0  0  0  0  0  0  0  0  0  0  0
  -12.4337  -27.8482   26.1730 H   0  0  0  0  0  0  0  0  0  0  0  0
  1  2  2  0
  2  3  1  0
  3  4  1  0
  4  5  1  0
  5  6  2  0
  6  7  1  0
  7  8  2  0
  8  9  1  0
  9 10  2  0
  2 11  1  0
 11 12  1  0
 12 13  1  0
 13 14  1  0
 14 15  1  0
 15 16  1  0
 16 17  2  0
 17 18  1  0
 18 19  2  0
 19 20  1  0
 15 21  1  0
 10  5  1  0
 21 11  1  0
 20 16  1  0
  3 22  1  0
  3 23  1  0
  4 24  1  0
  4 25  1  0
  6 26  1  0
  8 27  1  0
 10 28  1  0
 12 29  1  0
 12 30  1  0
 13 31  1  0
 13 32  1  0
 14 33  1  0
 14 34  1  0
 15 35  1  0
 17 36  1  0
 18 37  1  0
 20 38  1  0
 21 39  1  0
 21 40  1  0
M  END
>  <Energy>  (371) 
396.15284549404214

>  <compound_id>  (371) 
5143

>  <target_id>  (371) 
1

>  <reference_id>  (371) 
54

>  <inspiration_ids>  (371) 
[54, 112]

>  <energy_score>  (371) 
362.5304433649636

>  <distance_score>  (371) 
5.567530796840215

>  <path>  (371) 
/opt/xchem-fragalysis-2/maxwin/BulkDock/SCRATCH/511018/C5143-P54/C5143-P54.minimised.mol

>  <scratch_subdir>  (371) 
/opt/xchem-fragalysis-2/maxwin/BulkDock/SCRATCH/511018/C5143-P54

>  <fragmenstein_runtime>  (371) 
21.486403226852417

>  <fragmenstein_outcome>  (371) 
too moved

>  <fragmenstein_mode>  (371) 
expansion

>  <fragmenstein_error>  (371) 


$$$$
C5143-P112
     RDKit          3D

 40 42  0  0  0  0  0  0  0  0999 V2000
  -10.6392  -21.3775   23.5909 O   0  0  0  0  0  0  0  0  0  0  0  0
  -11.5280  -22.1905   23.8284 C   0  0  0  0  0  0  0  0  0  0  0  0
  -12.3836  -22.3506   22.6545 C   0  0  0  0  0  0  0  0  0  0  0  0
  -11.7419  -22.1362   21.3003 C   0  0  0  0  0  0  0  0  0  0  0  0
  -12.4729  -22.9564   20.2997 C   0  0  0  0  0  0  0  0  0  0  0  0
  -12.5594  -24.3725   20.2446 C   0  0  0  0  0  0  0  0  0  0  0  0
  -13.2787  -25.3208   19.4359 N   0  0  0  0  0  0  0  0  0  0  0  0
  -13.8125  -24.8992   18.3037 C   0  0  0  0  0  0  0  0  0  0  0  0
  -13.6119  -23.6309   17.9407 N   0  0  0  0  0  0  0  0  0  0  0  0
  -12.8532  -22.5833   18.9219 C   0  0  0  0  0  0  0  0  0  0  0  0
  -11.8490  -22.8535   25.0984 N   0  0  0  0  0  0  0  0  0  0  0  0
  -12.7192  -22.2271   25.8770 C   0  0  0  0  0  0  0  0  0  0  0  0
  -14.0249  -22.8695   25.2358 C   0  0  0  0  0  0  0  0  0  0  0  0
  -13.9195  -24.3538   25.1566 C   0  0  0  0  0  0  0  0  0  0  0  0
  -12.7269  -24.8998   26.0434 C   0  0  0  0  0  0  0  0  0  0  0  0
  -12.9952  -26.3627   26.1549 C   0  0  0  0  0  0  0  0  0  0  0  0
  -14.0860  -27.0281   25.6011 C   0  0  0  0  0  0  0  0  0  0  0  0
  -14.8136  -27.4998   26.7083 C   0  0  0  0  0  0  0  0  0  0  0  0
  -14.1540  -27.1964   27.8236 N   0  0  0  0  0  0  0  0  0  0  0  0
  -12.8781  -27.0370   27.3381 N   0  0  0  0  0  0  0  0  0  0  0  0
  -11.3414  -24.1929   25.7125 C   0  0  0  0  0  0  0  0  0  0  0  0
  -12.9303  -21.4170   22.8390 H   0  0  0  0  0  0  0  0  0  0  0  0
  -13.2372  -23.0018   22.7406 H   0  0  0  0  0  0  0  0  0  0  0  0
  -11.7384  -21.0729   21.0807 H   0  0  0  0  0  0  0  0  0  0  0  0
  -10.6732  -22.2796   21.2317 H   0  0  0  0  0  0  0  0  0  0  0  0
  -11.7207  -24.8155   20.7419 H   0  0  0  0  0  0  0  0  0  0  0  0
  -14.3469  -25.5747   17.6570 H   0  0  0  0  0  0  0  0  0  0  0  0
  -13.0546  -21.5941   18.5433 H   0  0  0  0  0  0  0  0  0  0  0  0
  -12.5531  -22.4197   26.9420 H   0  0  0  0  0  0  0  0  0  0  0  0
  -12.4521  -21.1936   25.6368 H   0  0  0  0  0  0  0  0  0  0  0  0
  -14.9864  -22.6767   25.6948 H   0  0  0  0  0  0  0  0  0  0  0  0
  -14.2390  -22.4377   24.2570 H   0  0  0  0  0  0  0  0  0  0  0  0
  -14.9011  -24.7679   25.4041 H   0  0  0  0  0  0  0  0  0  0  0  0
  -13.8587  -24.6633   24.1165 H   0  0  0  0  0  0  0  0  0  0  0  0
  -12.9118  -24.5132   27.0442 H   0  0  0  0  0  0  0  0  0  0  0  0
  -14.5506  -26.8032   24.6506 H   0  0  0  0  0  0  0  0  0  0  0  0
  -15.8181  -27.9011   26.7571 H   0  0  0  0  0  0  0  0  0  0  0  0
  -12.1438  -26.9190   28.0316 H   0  0  0  0  0  0  0  0  0  0  0  0
  -10.8887  -23.9265   26.6795 H   0  0  0  0  0  0  0  0  0  0  0  0
  -10.5443  -24.7343   25.2270 H   0  0  0  0  0  0  0  0  0  0  0  0
  1  2  2  0
  2  3  1  0
  3  4  1  0
  4  5  1  0
  5  6  2  0
  6  7  1  0
  7  8  2  0
  8  9  1  0
  9 10  2  0
  2 11  1  0
 11 12  1  0
 12 13  1  0
 13 14  1  0
 14 15  1  0
 15 16  1  0
 16 17  2  0
 17 18  1  0
 18 19  2  0
 19 20  1  0
 15 21  1  0
 10  5  1  0
 21 11  1  0
 20 16  1  0
  3 22  1  0
  3 23  1  0
  4 24  1  0
  4 25  1  0
  6 26  1  0
  8 27  1  0
 10 28  1  0
 12 29  1  0
 12 30  1  0
 13 31  1  0
 13 32  1  0
 14 33  1  0
 14 34  1  0
 15 35  1  0
 17 36  1  0
 18 37  1  0
 20 38  1  0
 21 39  1  0
 21 40  1  0
M  END
>  <Energy>  (372) 
204.1190897789013

>  <compound_id>  (372) 
5143

>  <target_id>  (372) 
1

>  <reference_id>  (372) 
112

>  <inspiration_ids>  (372) 
[54, 112]

>  <energy_score>  (372) 
170.49668764982653

>  <distance_score>  (372) 
6.468091286568417

>  <path>  (372) 
/opt/xchem-fragalysis-2/maxwin/BulkDock/SCRATCH/511018/C5143-P112/C5143-P112.minimised.mol

>  <scratch_subdir>  (372) 
/opt/xchem-fragalysis-2/maxwin/BulkDock/SCRATCH/511018/C5143-P112

>  <fragmenstein_runtime>  (372) 
21.154276609420776

>  <fragmenstein_outcome>  (372) 
too moved

>  <fragmenstein_mode>  (372) 
expansion

>  <fragmenstein_error>  (372) 


$$$$
C5144-P54
     RDKit          3D

 43 44  0  0  0  0  0  0  0  0999 V2000
   -9.5814  -23.2742   24.5982 C   0  0  0  0  0  0  0  0  0  0  0  0
   -8.3864  -22.9306   23.5442 C   0  0  0  0  0  0  0  0  0  0  0  0
   -7.9904  -23.6970   21.7789 C   0  0  0  0  0  0  0  0  0  0  0  0
   -9.2891  -22.0558   21.5004 C   0  0  0  0  0  0  0  0  0  0  0  0
  -10.7470  -22.0678   22.2380 N   0  0  0  0  0  0  0  0  0  0  0  0
  -11.3454  -21.1503   23.1687 C   0  0  0  0  0  0  0  0  0  0  0  0
  -10.9630  -20.1002   23.5759 O   0  0  0  0  0  0  0  0  0  0  0  0
  -12.6961  -21.7573   23.8067 C   0  0  0  0  0  0  0  0  0  0  0  0
  -12.6604  -22.5398   25.1524 C   0  0  0  0  0  0  0  0  0  0  0  0
  -11.9403  -22.2305   26.2934 C   0  0  0  0  0  0  0  0  0  0  0  0
  -11.8670  -22.9842   27.4226 N   0  0  0  0  0  0  0  0  0  0  0  0
  -12.6289  -24.0736   27.4438 C   0  0  0  0  0  0  0  0  0  0  0  0
  -13.4624  -24.4406   26.4679 N   0  0  0  0  0  0  0  0  0  0  0  0
  -13.4811  -23.6311   25.3798 C   0  0  0  0  0  0  0  0  0  0  0  0
   -8.3269  -24.7124   20.4219 N   0  0  0  0  0  0  0  0  0  0  0  0
   -7.5597  -24.8014   18.6079 C   0  0  0  0  0  0  0  0  0  0  0  0
   -6.6573  -24.2300   18.1359 O   0  0  0  0  0  0  0  0  0  0  0  0
   -8.5822  -25.9996   17.0303 C   0  0  0  0  0  0  0  0  0  0  0  0
   -9.9934  -26.9948   16.9410 C   0  0  0  0  0  0  0  0  0  0  0  0
  -10.3954  -27.6477   15.7819 C   0  0  0  0  0  0  0  0  0  0  0  0
  -11.6288  -28.2370   16.0913 C   0  0  0  0  0  0  0  0  0  0  0  0
  -12.0002  -27.9924   17.3479 N   0  0  0  0  0  0  0  0  0  0  0  0
  -10.9944  -27.2475   17.8368 N   0  0  0  0  0  0  0  0  0  0  0  0
   -9.7893  -24.2860   24.9351 H   0  0  0  0  0  0  0  0  0  0  0  0
  -10.4989  -22.8855   24.2470 H   0  0  0  0  0  0  0  0  0  0  0  0
   -9.5258  -22.8860   25.6153 H   0  0  0  0  0  0  0  0  0  0  0  0
   -7.4081  -22.9058   24.0573 H   0  0  0  0  0  0  0  0  0  0  0  0
   -8.4132  -21.8589   23.4193 H   0  0  0  0  0  0  0  0  0  0  0  0
   -6.8267  -23.7013   21.7741 H   0  0  0  0  0  0  0  0  0  0  0  0
   -9.6061  -21.8822   20.4713 H   0  0  0  0  0  0  0  0  0  0  0  0
   -8.9742  -21.1204   21.9435 H   0  0  0  0  0  0  0  0  0  0  0  0
  -11.3760  -22.8051   22.0626 H   0  0  0  0  0  0  0  0  0  0  0  0
  -13.4158  -20.9731   23.9850 H   0  0  0  0  0  0  0  0  0  0  0  0
  -13.1186  -22.4376   23.0714 H   0  0  0  0  0  0  0  0  0  0  0  0
  -11.4004  -21.2997   26.3920 H   0  0  0  0  0  0  0  0  0  0  0  0
  -12.5829  -24.6975   28.3278 H   0  0  0  0  0  0  0  0  0  0  0  0
  -14.1804  -23.9564   24.6278 H   0  0  0  0  0  0  0  0  0  0  0  0
   -9.0031  -25.3366   20.5581 H   0  0  0  0  0  0  0  0  0  0  0  0
   -8.0023  -26.9177   16.5946 H   0  0  0  0  0  0  0  0  0  0  0  0
   -8.9003  -25.3855   16.0882 H   0  0  0  0  0  0  0  0  0  0  0  0
   -9.8670  -27.6628   14.8385 H   0  0  0  0  0  0  0  0  0  0  0  0
  -12.2734  -28.8282   15.4539 H   0  0  0  0  0  0  0  0  0  0  0  0
  -11.0747  -26.9406   18.8008 H   0  0  0  0  0  0  0  0  0  0  0  0
  1  2  1  0
  2  3  1  0
  3  4  1  0
  4  5  1  0
  5  6  1  0
  6  7  2  0
  6  8  1  0
  8  9  1  0
  9 10  2  0
 10 11  1  0
 11 12  2  0
 12 13  1  0
 13 14  2  0
  3 15  1  0
 15 16  1  0
 16 17  2  0
 16 18  1  0
 18 19  1  0
 19 20  2  0
 20 21  1  0
 21 22  2  0
 22 23  1  0
 14  9  1  0
 23 19  1  0
  1 24  1  0
  1 25  1  0
  1 26  1  0
  2 27  1  0
  2 28  1  0
  3 29  1  0
  4 30  1  0
  4 31  1  0
  5 32  1  0
  8 33  1  0
  8 34  1  0
 10 35  1  0
 12 36  1  0
 14 37  1  0
 15 38  1  0
 18 39  1  0
 18 40  1  0
 20 41  1  0
 21 42  1  0
 23 43  1  0
M  END
>  <Energy>  (373) 
613.55688461232512

>  <compound_id>  (373) 
5144

>  <target_id>  (373) 
1

>  <reference_id>  (373) 
54

>  <inspiration_ids>  (373) 
[54, 112]

>  <energy_score>  (373) 
562.3689546906247

>  <distance_score>  (373) 
4.355497001083131

>  <path>  (373) 
/opt/xchem-fragalysis-2/maxwin/BulkDock/SCRATCH/511018/C5144-P54/C5144-P54.minimised.mol

>  <scratch_subdir>  (373) 
/opt/xchem-fragalysis-2/maxwin/BulkDock/SCRATCH/511018/C5144-P54

>  <fragmenstein_runtime>  (373) 
11.783464193344116

>  <fragmenstein_outcome>  (373) 
too moved

>  <fragmenstein_mode>  (373) 
expansion

>  <fragmenstein_error>  (373) 


$$$$
C5144-P112
     RDKit          3D

 43 44  0  0  0  0  0  0  0  0999 V2000
  -10.4258  -21.5861   22.2752 C   0  0  0  0  0  0  0  0  0  0  0  0
  -11.0760  -22.0755   20.9403 C   0  0  0  0  0  0  0  0  0  0  0  0
  -12.1010  -23.4116   20.9411 C   0  0  0  0  0  0  0  0  0  0  0  0
  -12.9250  -22.6390   22.3675 C   0  0  0  0  0  0  0  0  0  0  0  0
  -12.6627  -22.5947   23.8666 N   0  0  0  0  0  0  0  0  0  0  0  0
  -13.0784  -22.8605   24.8200 C   0  0  0  0  0  0  0  0  0  0  0  0
  -14.4056  -23.6786   24.4080 O   0  0  0  0  0  0  0  0  0  0  0  0
  -12.8385  -22.7703   26.2325 C   0  0  0  0  0  0  0  0  0  0  0  0
  -12.2190  -23.8787   26.9177 C   0  0  0  0  0  0  0  0  0  0  0  0
  -11.2114  -23.5015   27.7574 C   0  0  0  0  0  0  0  0  0  0  0  0
  -10.0547  -24.0408   27.5378 N   0  0  0  0  0  0  0  0  0  0  0  0
  -10.0953  -24.8820   26.5024 C   0  0  0  0  0  0  0  0  0  0  0  0
  -11.0932  -25.6599   26.0652 N   0  0  0  0  0  0  0  0  0  0  0  0
  -12.2466  -25.1344   26.3744 C   0  0  0  0  0  0  0  0  0  0  0  0
  -13.0774  -24.5702   19.8671 N   0  0  0  0  0  0  0  0  0  0  0  0
  -12.6646  -25.7598   19.0702 C   0  0  0  0  0  0  0  0  0  0  0  0
  -11.5767  -26.2206   18.8606 O   0  0  0  0  0  0  0  0  0  0  0  0
  -13.8490  -26.4137   18.3322 C   0  0  0  0  0  0  0  0  0  0  0  0
  -13.6111  -26.3089   16.8509 C   0  0  0  0  0  0  0  0  0  0  0  0
  -12.6424  -26.8707   16.0408 C   0  0  0  0  0  0  0  0  0  0  0  0
  -12.9016  -26.3667   14.7566 C   0  0  0  0  0  0  0  0  0  0  0  0
  -13.9606  -25.5555   14.7401 N   0  0  0  0  0  0  0  0  0  0  0  0
  -14.3749  -25.5376   16.0162 N   0  0  0  0  0  0  0  0  0  0  0  0
   -9.3826  -21.3599   22.1044 H   0  0  0  0  0  0  0  0  0  0  0  0
  -10.3428  -22.2623   23.1213 H   0  0  0  0  0  0  0  0  0  0  0  0
  -10.9448  -20.7095   22.6641 H   0  0  0  0  0  0  0  0  0  0  0  0
  -10.2021  -22.1563   20.3195 H   0  0  0  0  0  0  0  0  0  0  0  0
  -11.6213  -21.2229   20.5929 H   0  0  0  0  0  0  0  0  0  0  0  0
  -11.3764  -24.2002   21.0066 H   0  0  0  0  0  0  0  0  0  0  0  0
  -13.9347  -22.9373   22.4274 H   0  0  0  0  0  0  0  0  0  0  0  0
  -12.8638  -21.5916   22.1578 H   0  0  0  0  0  0  0  0  0  0  0  0
  -12.0447  -22.1397   23.2808 H   0  0  0  0  0  0  0  0  0  0  0  0
  -13.8226  -22.7808   26.5770 H   0  0  0  0  0  0  0  0  0  0  0  0
  -12.2860  -21.8473   26.4323 H   0  0  0  0  0  0  0  0  0  0  0  0
  -11.2366  -22.6078   28.3713 H   0  0  0  0  0  0  0  0  0  0  0  0
   -9.2657  -24.7787   25.8292 H   0  0  0  0  0  0  0  0  0  0  0  0
  -13.1197  -25.5551   25.8917 H   0  0  0  0  0  0  0  0  0  0  0  0
  -14.0380  -24.5292   19.8928 H   0  0  0  0  0  0  0  0  0  0  0  0
  -13.8904  -27.4665   18.6342 H   0  0  0  0  0  0  0  0  0  0  0  0
  -14.8048  -25.9689   18.5911 H   0  0  0  0  0  0  0  0  0  0  0  0
  -11.8394  -27.5278   16.3473 H   0  0  0  0  0  0  0  0  0  0  0  0
  -12.3617  -26.5508   13.8364 H   0  0  0  0  0  0  0  0  0  0  0  0
  -15.1864  -24.9705   16.2402 H   0  0  0  0  0  0  0  0  0  0  0  0
  1  2  1  0
  2  3  1  0
  3  4  1  0
  4  5  1  0
  5  6  1  0
  6  7  2  0
  6  8  1  0
  8  9  1  0
  9 10  2  0
 10 11  1  0
 11 12  2  0
 12 13  1  0
 13 14  2  0
  3 15  1  0
 15 16  1  0
 16 17  2  0
 16 18  1  0
 18 19  1  0
 19 20  2  0
 20 21  1  0
 21 22  2  0
 22 23  1  0
 14  9  1  0
 23 19  1  0
  1 24  1  0
  1 25  1  0
  1 26  1  0
  2 27  1  0
  2 28  1  0
  3 29  1  0
  4 30  1  0
  4 31  1  0
  5 32  1  0
  8 33  1  0
  8 34  1  0
 10 35  1  0
 12 36  1  0
 14 37  1  0
 15 38  1  0
 18 39  1  0
 18 40  1  0
 20 41  1  0
 21 42  1  0
 23 43  1  0
M  END
>  <Energy>  (374) 
460.13323389497913

>  <compound_id>  (374) 
5144

>  <target_id>  (374) 
1

>  <reference_id>  (374) 
112

>  <inspiration_ids>  (374) 
[54, 112]

>  <energy_score>  (374) 
408.94530397327674

>  <distance_score>  (374) 
4.52335201515135

>  <path>  (374) 
/opt/xchem-fragalysis-2/maxwin/BulkDock/SCRATCH/511018/C5144-P112/C5144-P112.minimised.mol

>  <scratch_subdir>  (374) 
/opt/xchem-fragalysis-2/maxwin/BulkDock/SCRATCH/511018/C5144-P112

>  <fragmenstein_runtime>  (374) 
20.16911292076111

>  <fragmenstein_outcome>  (374) 
too moved

>  <fragmenstein_mode>  (374) 
expansion

>  <fragmenstein_error>  (374) 


$$$$
C5148-P54
     RDKit          3D

 34 35  0  0  0  0  0  0  0  0999 V2000
  -12.3301  -24.2083   28.3198 C   0  0  0  0  0  0  0  0  0  0  0  0
  -12.4399  -24.3405   26.9044 O   0  0  0  0  0  0  0  0  0  0  0  0
  -13.8054  -24.4646   26.4606 C   0  0  0  0  0  0  0  0  0  0  0  0
  -13.9353  -24.5338   24.9290 C   0  0  0  0  0  0  0  0  0  0  0  0
  -13.6890  -23.3768   24.2156 N   0  0  0  0  0  0  0  0  0  0  0  0
  -13.5565  -23.5330   22.8243 C   0  0  0  0  0  0  0  0  0  0  0  0
  -13.7266  -24.9998   21.8723 C   0  0  0  0  0  0  0  0  0  0  0  0
  -13.2377  -25.3428   20.3904 N   0  0  0  0  0  0  0  0  0  0  0  0
  -13.7763  -26.4380   19.3253 C   0  0  0  0  0  0  0  0  0  0  0  0
  -14.7397  -27.1940   19.3840 O   0  0  0  0  0  0  0  0  0  0  0  0
  -12.9581  -26.7309   18.0550 C   0  0  0  0  0  0  0  0  0  0  0  0
  -13.7388  -26.4261   16.7731 C   0  0  0  0  0  0  0  0  0  0  0  0
  -12.9943  -26.7209   15.5081 C   0  0  0  0  0  0  0  0  0  0  0  0
  -11.7300  -27.2033   15.2348 C   0  0  0  0  0  0  0  0  0  0  0  0
  -11.6222  -27.1672   13.8330 C   0  0  0  0  0  0  0  0  0  0  0  0
  -12.7358  -26.7197   13.2509 N   0  0  0  0  0  0  0  0  0  0  0  0
  -13.5516  -26.4578   14.2816 N   0  0  0  0  0  0  0  0  0  0  0  0
  -14.2415  -25.9499   22.9069 C   0  0  0  0  0  0  0  0  0  0  0  0
  -14.2359  -25.7762   24.3634 N   0  0  0  0  0  0  0  0  0  0  0  0
  -12.7828  -25.0707   28.8181 H   0  0  0  0  0  0  0  0  0  0  0  0
  -11.2684  -24.1717   28.5780 H   0  0  0  0  0  0  0  0  0  0  0  0
  -12.8024  -23.2856   28.6608 H   0  0  0  0  0  0  0  0  0  0  0  0
  -14.3923  -23.6121   26.8049 H   0  0  0  0  0  0  0  0  0  0  0  0
  -14.2343  -25.3769   26.8906 H   0  0  0  0  0  0  0  0  0  0  0  0
  -13.0704  -22.6698   22.3531 H   0  0  0  0  0  0  0  0  0  0  0  0
  -12.3800  -24.9550   20.0659 H   0  0  0  0  0  0  0  0  0  0  0  0
  -11.8940  -26.5414   18.0463 H   0  0  0  0  0  0  0  0  0  0  0  0
  -12.8912  -27.8357   18.0792 H   0  0  0  0  0  0  0  0  0  0  0  0
  -14.6599  -27.0249   16.7648 H   0  0  0  0  0  0  0  0  0  0  0  0
  -14.0737  -25.3831   16.7843 H   0  0  0  0  0  0  0  0  0  0  0  0
  -10.9703  -27.5131   15.9390 H   0  0  0  0  0  0  0  0  0  0  0  0
  -10.7786  -27.4462   13.2144 H   0  0  0  0  0  0  0  0  0  0  0  0
  -14.4741  -26.0868   14.0785 H   0  0  0  0  0  0  0  0  0  0  0  0
  -15.1207  -26.4970   22.5995 H   0  0  0  0  0  0  0  0  0  0  0  0
  1  2  1  0
  2  3  1  0
  3  4  1  0
  4  5  2  0
  5  6  1  0
  6  7  2  0
  7  8  1  0
  8  9  1  0
  9 10  2  0
  9 11  1  0
 11 12  1  0
 12 13  1  0
 13 14  2  0
 14 15  1  0
 15 16  2  0
 16 17  1  0
  7 18  1  0
 18 19  2  0
 19  4  1  0
 17 13  1  0
  1 20  1  0
  1 21  1  0
  1 22  1  0
  3 23  1  0
  3 24  1  0
  6 25  1  0
  8 26  1  0
 11 27  1  0
 11 28  1  0
 12 29  1  0
 12 30  1  0
 14 31  1  0
 15 32  1  0
 17 33  1  0
 18 34  1  0
M  END
>  <Energy>  (375) 
191.75309532289938

>  <compound_id>  (375) 
5148

>  <target_id>  (375) 
1

>  <reference_id>  (375) 
54

>  <inspiration_ids>  (375) 
[54, 112]

>  <energy_score>  (375) 
96.98873128424981

>  <distance_score>  (375) 
5.5928160206288515

>  <path>  (375) 
/opt/xchem-fragalysis-2/maxwin/BulkDock/SCRATCH/511018/C5148-P54/C5148-P54.minimised.mol

>  <scratch_subdir>  (375) 
/opt/xchem-fragalysis-2/maxwin/BulkDock/SCRATCH/511018/C5148-P54

>  <fragmenstein_runtime>  (375) 
18.27729868888855

>  <fragmenstein_outcome>  (375) 
too moved

>  <fragmenstein_mode>  (375) 
expansion

>  <fragmenstein_error>  (375) 


$$$$
C5148-P112
     RDKit          3D

 34 35  0  0  0  0  0  0  0  0999 V2000
  -11.2603  -22.9355   27.8268 C   0  0  0  0  0  0  0  0  0  0  0  0
  -11.5952  -23.8859   26.8237 O   0  0  0  0  0  0  0  0  0  0  0  0
  -12.8002  -23.5203   26.1394 C   0  0  0  0  0  0  0  0  0  0  0  0
  -12.6553  -22.7791   24.8434 C   0  0  0  0  0  0  0  0  0  0  0  0
  -13.5985  -22.4868   24.0056 N   0  0  0  0  0  0  0  0  0  0  0  0
  -13.0499  -21.6636   23.0507 C   0  0  0  0  0  0  0  0  0  0  0  0
  -11.9175  -21.6759   22.2914 C   0  0  0  0  0  0  0  0  0  0  0  0
  -11.3530  -21.2532   21.0610 N   0  0  0  0  0  0  0  0  0  0  0  0
   -9.9690  -21.3488   20.5380 C   0  0  0  0  0  0  0  0  0  0  0  0
   -9.1196  -21.8824   21.0607 O   0  0  0  0  0  0  0  0  0  0  0  0
   -9.2909  -20.4598   18.9563 C   0  0  0  0  0  0  0  0  0  0  0  0
   -8.9976  -21.0061   17.3422 C   0  0  0  0  0  0  0  0  0  0  0  0
   -9.3894  -22.0706   15.7617 C   0  0  0  0  0  0  0  0  0  0  0  0
   -9.3766  -23.3679   15.1992 C   0  0  0  0  0  0  0  0  0  0  0  0
   -9.7237  -23.4019   13.8294 C   0  0  0  0  0  0  0  0  0  0  0  0
   -9.8527  -22.1765   13.3999 N   0  0  0  0  0  0  0  0  0  0  0  0
   -9.7378  -21.4742   14.5461 N   0  0  0  0  0  0  0  0  0  0  0  0
  -11.0529  -22.0806   23.2091 C   0  0  0  0  0  0  0  0  0  0  0  0
  -11.4332  -22.6889   24.3593 N   0  0  0  0  0  0  0  0  0  0  0  0
  -10.2668  -23.1835   28.1865 H   0  0  0  0  0  0  0  0  0  0  0  0
  -11.9434  -22.9667   28.6624 H   0  0  0  0  0  0  0  0  0  0  0  0
  -11.2833  -21.9213   27.4314 H   0  0  0  0  0  0  0  0  0  0  0  0
  -13.3498  -22.8679   26.7727 H   0  0  0  0  0  0  0  0  0  0  0  0
  -13.3432  -24.4452   25.9346 H   0  0  0  0  0  0  0  0  0  0  0  0
  -12.8660  -20.7548   23.7066 H   0  0  0  0  0  0  0  0  0  0  0  0
  -11.9281  -20.7978   20.3612 H   0  0  0  0  0  0  0  0  0  0  0  0
   -8.4511  -19.8286   19.2852 H   0  0  0  0  0  0  0  0  0  0  0  0
   -9.8042  -19.5473   18.6815 H   0  0  0  0  0  0  0  0  0  0  0  0
   -9.4672  -20.1545   16.8960 H   0  0  0  0  0  0  0  0  0  0  0  0
   -7.9001  -20.8357   17.4201 H   0  0  0  0  0  0  0  0  0  0  0  0
   -9.1758  -24.3203   15.5926 H   0  0  0  0  0  0  0  0  0  0  0  0
   -9.8159  -24.2467   13.1609 H   0  0  0  0  0  0  0  0  0  0  0  0
  -10.0858  -20.5313   14.4938 H   0  0  0  0  0  0  0  0  0  0  0  0
   -9.9819  -22.0159   23.0872 H   0  0  0  0  0  0  0  0  0  0  0  0
  1  2  1  0
  2  3  1  0
  3  4  1  0
  4  5  2  0
  5  6  1  0
  6  7  2  0
  7  8  1  0
  8  9  1  0
  9 10  2  0
  9 11  1  0
 11 12  1  0
 12 13  1  0
 13 14  2  0
 14 15  1  0
 15 16  2  0
 16 17  1  0
  7 18  1  0
 18 19  2  0
 19  4  1  0
 17 13  1  0
  1 20  1  0
  1 21  1  0
  1 22  1  0
  3 23  1  0
  3 24  1  0
  6 25  1  0
  8 26  1  0
 11 27  1  0
 11 28  1  0
 12 29  1  0
 12 30  1  0
 14 31  1  0
 15 32  1  0
 17 33  1  0
 18 34  1  0
M  END
>  <Energy>  (376) 
365.1072026070143

>  <compound_id>  (376) 
5148

>  <target_id>  (376) 
1

>  <reference_id>  (376) 
112

>  <inspiration_ids>  (376) 
[54, 112]

>  <energy_score>  (376) 
270.34283856836703

>  <distance_score>  (376) 
5.802274817064147

>  <path>  (376) 
/opt/xchem-fragalysis-2/maxwin/BulkDock/SCRATCH/511018/C5148-P112/C5148-P112.minimised.mol

>  <scratch_subdir>  (376) 
/opt/xchem-fragalysis-2/maxwin/BulkDock/SCRATCH/511018/C5148-P112

>  <fragmenstein_runtime>  (376) 
14.179048776626587

>  <fragmenstein_outcome>  (376) 
too moved

>  <fragmenstein_mode>  (376) 
expansion

>  <fragmenstein_error>  (376) 


$$$$
C5149-P54
     RDKit          3D

 31 32  0  0  0  0  0  0  0  0999 V2000
  -11.9742  -24.2506   28.9838 C   0  0  0  0  0  0  0  0  0  0  0  0
  -12.8892  -25.0476   28.2289 O   0  0  0  0  0  0  0  0  0  0  0  0
  -12.8414  -24.7186   26.8291 C   0  0  0  0  0  0  0  0  0  0  0  0
  -13.8538  -25.4324   25.9076 C   0  0  0  0  0  0  0  0  0  0  0  0
  -15.0908  -25.6664   26.3374 N   0  0  0  0  0  0  0  0  0  0  0  0
  -15.9672  -26.0585   25.3950 C   0  0  0  0  0  0  0  0  0  0  0  0
  -15.6788  -26.1808   24.0343 C   0  0  0  0  0  0  0  0  0  0  0  0
  -14.3336  -25.9506   23.5606 C   0  0  0  0  0  0  0  0  0  0  0  0
  -13.8516  -25.5962   21.6985 C   0  0  0  0  0  0  0  0  0  0  0  0
  -13.5731  -26.4990   19.5753 S   0  0  0  0  0  0  0  0  0  0  0  0
  -14.1708  -25.5365   18.1126 C   0  0  0  0  0  0  0  0  0  0  0  0
  -13.7751  -26.2481   16.8439 C   0  0  0  0  0  0  0  0  0  0  0  0
  -12.7642  -27.1325   16.5107 C   0  0  0  0  0  0  0  0  0  0  0  0
  -12.9135  -27.3613   15.1321 C   0  0  0  0  0  0  0  0  0  0  0  0
  -13.9427  -26.6871   14.6164 N   0  0  0  0  0  0  0  0  0  0  0  0
  -14.4411  -26.0148   15.6662 N   0  0  0  0  0  0  0  0  0  0  0  0
  -13.4883  -25.6030   24.5961 N   0  0  0  0  0  0  0  0  0  0  0  0
  -10.9622  -24.3367   28.5759 H   0  0  0  0  0  0  0  0  0  0  0  0
  -12.2954  -23.2051   28.9822 H   0  0  0  0  0  0  0  0  0  0  0  0
  -11.9633  -24.6198   30.0117 H   0  0  0  0  0  0  0  0  0  0  0  0
  -11.8355  -24.9544   26.4617 H   0  0  0  0  0  0  0  0  0  0  0  0
  -13.0107  -23.6421   26.7086 H   0  0  0  0  0  0  0  0  0  0  0  0
  -16.9749  -26.2432   25.7613 H   0  0  0  0  0  0  0  0  0  0  0  0
  -16.4877  -26.4234   23.3517 H   0  0  0  0  0  0  0  0  0  0  0  0
  -14.7793  -26.0068   21.6874 H   0  0  0  0  0  0  0  0  0  0  0  0
  -13.6487  -24.5660   21.5234 H   0  0  0  0  0  0  0  0  0  0  0  0
  -15.2649  -25.4895   18.0811 H   0  0  0  0  0  0  0  0  0  0  0  0
  -13.7744  -24.5293   18.1492 H   0  0  0  0  0  0  0  0  0  0  0  0
  -12.0061  -27.5360   17.1681 H   0  0  0  0  0  0  0  0  0  0  0  0
  -12.3132  -27.9863   14.4836 H   0  0  0  0  0  0  0  0  0  0  0  0
  -15.2275  -25.3944   15.5058 H   0  0  0  0  0  0  0  0  0  0  0  0
  1  2  1  0
  2  3  1  0
  3  4  1  0
  4  5  2  0
  5  6  1  0
  6  7  2  0
  7  8  1  0
  8  9  1  0
  9 10  1  0
 10 11  1  0
 11 12  1  0
 12 13  2  0
 13 14  1  0
 14 15  2  0
 15 16  1  0
  8 17  2  0
 17  4  1  0
 16 12  1  0
  1 18  1  0
  1 19  1  0
  1 20  1  0
  3 21  1  0
  3 22  1  0
  6 23  1  0
  7 24  1  0
  9 25  1  0
  9 26  1  0
 11 27  1  0
 11 28  1  0
 13 29  1  0
 14 30  1  0
 16 31  1  0
M  END
>  <Energy>  (377) 
233.76753310297454

>  <compound_id>  (377) 
5149

>  <target_id>  (377) 
1

>  <reference_id>  (377) 
54

>  <inspiration_ids>  (377) 
[54, 112]

>  <energy_score>  (377) 
162.47859561498046

>  <distance_score>  (377) 
5.618664895633014

>  <path>  (377) 
/opt/xchem-fragalysis-2/maxwin/BulkDock/SCRATCH/511018/C5149-P54/C5149-P54.minimised.mol

>  <scratch_subdir>  (377) 
/opt/xchem-fragalysis-2/maxwin/BulkDock/SCRATCH/511018/C5149-P54

>  <fragmenstein_runtime>  (377) 
11.394033193588257

>  <fragmenstein_outcome>  (377) 
too moved

>  <fragmenstein_mode>  (377) 
expansion

>  <fragmenstein_error>  (377) 


$$$$
C5149-P112
     RDKit          3D

 31 32  0  0  0  0  0  0  0  0999 V2000
  -11.4608  -22.7561   28.0617 C   0  0  0  0  0  0  0  0  0  0  0  0
  -11.8522  -21.9132   27.0044 O   0  0  0  0  0  0  0  0  0  0  0  0
  -12.1466  -22.6233   25.7915 C   0  0  0  0  0  0  0  0  0  0  0  0
  -11.9917  -21.6998   24.4770 C   0  0  0  0  0  0  0  0  0  0  0  0
  -12.8548  -20.7505   24.3465 N   0  0  0  0  0  0  0  0  0  0  0  0
  -13.9647  -21.2627   23.9078 C   0  0  0  0  0  0  0  0  0  0  0  0
  -13.8716  -22.4353   23.2428 C   0  0  0  0  0  0  0  0  0  0  0  0
  -12.7113  -22.5278   22.5237 C   0  0  0  0  0  0  0  0  0  0  0  0
  -12.4395  -22.9999   20.9359 C   0  0  0  0  0  0  0  0  0  0  0  0
  -12.9985  -24.8976   19.8699 S   0  0  0  0  0  0  0  0  0  0  0  0
  -13.8200  -24.8513   18.0940 C   0  0  0  0  0  0  0  0  0  0  0  0
  -13.3147  -25.9809   17.2357 C   0  0  0  0  0  0  0  0  0  0  0  0
  -13.2747  -26.1407   15.8653 C   0  0  0  0  0  0  0  0  0  0  0  0
  -12.6686  -27.3929   15.6647 C   0  0  0  0  0  0  0  0  0  0  0  0
  -12.3691  -27.9985   16.8151 N   0  0  0  0  0  0  0  0  0  0  0  0
  -12.7497  -27.1126   17.7493 N   0  0  0  0  0  0  0  0  0  0  0  0
  -11.6624  -22.2615   23.3154 N   0  0  0  0  0  0  0  0  0  0  0  0
  -12.0897  -23.6318   28.0429 H   0  0  0  0  0  0  0  0  0  0  0  0
  -10.4318  -23.0968   27.9519 H   0  0  0  0  0  0  0  0  0  0  0  0
  -11.5601  -22.2123   29.0031 H   0  0  0  0  0  0  0  0  0  0  0  0
  -11.4703  -23.4829   25.7137 H   0  0  0  0  0  0  0  0  0  0  0  0
  -13.1539  -23.0474   25.8445 H   0  0  0  0  0  0  0  0  0  0  0  0
  -14.8990  -20.7671   24.1446 H   0  0  0  0  0  0  0  0  0  0  0  0
  -14.7992  -22.9177   23.1968 H   0  0  0  0  0  0  0  0  0  0  0  0
  -11.3987  -23.2085   21.0607 H   0  0  0  0  0  0  0  0  0  0  0  0
  -12.3972  -22.1870   20.2372 H   0  0  0  0  0  0  0  0  0  0  0  0
  -13.6256  -23.9183   17.5828 H   0  0  0  0  0  0  0  0  0  0  0  0
  -14.8922  -25.0092   18.1456 H   0  0  0  0  0  0  0  0  0  0  0  0
  -13.6232  -25.4453   15.1146 H   0  0  0  0  0  0  0  0  0  0  0  0
  -12.4400  -27.8914   14.7314 H   0  0  0  0  0  0  0  0  0  0  0  0
  -12.5716  -27.3114   18.7315 H   0  0  0  0  0  0  0  0  0  0  0  0
  1  2  1  0
  2  3  1  0
  3  4  1  0
  4  5  2  0
  5  6  1  0
  6  7  2  0
  7  8  1  0
  8  9  1  0
  9 10  1  0
 10 11  1  0
 11 12  1  0
 12 13  2  0
 13 14  1  0
 14 15  2  0
 15 16  1  0
  8 17  2  0
 17  4  1  0
 16 12  1  0
  1 18  1  0
  1 19  1  0
  1 20  1  0
  3 21  1  0
  3 22  1  0
  6 23  1  0
  7 24  1  0
  9 25  1  0
  9 26  1  0
 11 27  1  0
 11 28  1  0
 13 29  1  0
 14 30  1  0
 16 31  1  0
M  END
>  <Energy>  (378) 
212.33314892057686

>  <compound_id>  (378) 
5149

>  <target_id>  (378) 
1

>  <reference_id>  (378) 
112

>  <inspiration_ids>  (378) 
[54, 112]

>  <energy_score>  (378) 
141.0442114325785

>  <distance_score>  (378) 
5.839676641001191

>  <path>  (378) 
/opt/xchem-fragalysis-2/maxwin/BulkDock/SCRATCH/511018/C5149-P112/C5149-P112.minimised.mol

>  <scratch_subdir>  (378) 
/opt/xchem-fragalysis-2/maxwin/BulkDock/SCRATCH/511018/C5149-P112

>  <fragmenstein_runtime>  (378) 
10.86510944366455

>  <fragmenstein_outcome>  (378) 
too moved

>  <fragmenstein_mode>  (378) 
expansion

>  <fragmenstein_error>  (378) 


$$$$
C5150-P54
     RDKit          3D

 38 39  0  0  0  0  0  0  0  0999 V2000
   -9.5393  -21.1426   22.2820 C   0  0  0  0  0  0  0  0  0  0  0  0
  -10.4130  -21.4670   21.1042 C   0  0  0  0  0  0  0  0  0  0  0  0
   -9.5597  -20.9927   19.4268 C   0  0  0  0  0  0  0  0  0  0  0  0
   -9.3229  -21.2451   17.4261 C   0  0  0  0  0  0  0  0  0  0  0  0
   -9.5595  -22.7194   16.1802 N   0  0  0  0  0  0  0  0  0  0  0  0
  -10.1505  -22.7725   14.8198 C   0  0  0  0  0  0  0  0  0  0  0  0
  -10.7091  -21.9291   14.1802 O   0  0  0  0  0  0  0  0  0  0  0  0
   -9.9740  -24.0473   13.9681 C   0  0  0  0  0  0  0  0  0  0  0  0
  -10.6175  -25.3394   14.3289 C   0  0  0  0  0  0  0  0  0  0  0  0
  -10.2400  -26.4663   15.0257 C   0  0  0  0  0  0  0  0  0  0  0  0
  -11.3374  -27.3426   14.9378 C   0  0  0  0  0  0  0  0  0  0  0  0
  -12.3413  -26.8278   14.2289 N   0  0  0  0  0  0  0  0  0  0  0  0
  -11.8658  -25.6381   13.8304 N   0  0  0  0  0  0  0  0  0  0  0  0
  -11.8720  -21.4861   21.9474 N   0  0  0  0  0  0  0  0  0  0  0  0
  -11.9724  -21.9833   23.4039 C   0  0  0  0  0  0  0  0  0  0  0  0
  -10.8578  -22.4237   24.0337 N   0  0  0  0  0  0  0  0  0  0  0  0
  -10.8363  -22.9475   25.3009 C   0  0  0  0  0  0  0  0  0  0  0  0
  -11.8667  -23.2455   26.0558 N   0  0  0  0  0  0  0  0  0  0  0  0
  -12.9880  -22.8200   25.4870 C   0  0  0  0  0  0  0  0  0  0  0  0
  -13.1204  -22.1486   24.2377 C   0  0  0  0  0  0  0  0  0  0  0  0
  -14.7629  -21.6342   24.1927 Cl  0  0  0  0  0  0  0  0  0  0  0  0
   -9.0490  -21.9681   22.7873 H   0  0  0  0  0  0  0  0  0  0  0  0
  -10.1382  -20.5741   22.9961 H   0  0  0  0  0  0  0  0  0  0  0  0
   -8.8004  -20.4189   22.0938 H   0  0  0  0  0  0  0  0  0  0  0  0
  -10.4813  -22.4998   20.8797 H   0  0  0  0  0  0  0  0  0  0  0  0
   -9.5575  -22.0205   19.4415 H   0  0  0  0  0  0  0  0  0  0  0  0
   -8.7757  -20.3212   19.6652 H   0  0  0  0  0  0  0  0  0  0  0  0
   -8.2476  -21.0689   17.3816 H   0  0  0  0  0  0  0  0  0  0  0  0
   -9.7125  -20.3686   16.9583 H   0  0  0  0  0  0  0  0  0  0  0  0
   -9.0991  -23.5785   16.3682 H   0  0  0  0  0  0  0  0  0  0  0  0
  -10.5082  -23.7829   13.0327 H   0  0  0  0  0  0  0  0  0  0  0  0
   -8.9946  -24.0910   13.5272 H   0  0  0  0  0  0  0  0  0  0  0  0
   -9.3132  -26.6597   15.5405 H   0  0  0  0  0  0  0  0  0  0  0  0
  -11.4435  -28.3329   15.3614 H   0  0  0  0  0  0  0  0  0  0  0  0
  -12.4551  -25.0500   13.2488 H   0  0  0  0  0  0  0  0  0  0  0  0
  -12.4550  -22.1343   21.4180 H   0  0  0  0  0  0  0  0  0  0  0  0
   -9.8739  -23.1929   25.7082 H   0  0  0  0  0  0  0  0  0  0  0  0
  -13.8634  -23.0139   26.1039 H   0  0  0  0  0  0  0  0  0  0  0  0
  1  2  1  0
  2  3  1  0
  3  4  1  0
  4  5  1  0
  5  6  1  0
  6  7  2  0
  6  8  1  0
  8  9  1  0
  9 10  2  0
 10 11  1  0
 11 12  2  0
 12 13  1  0
  2 14  1  0
 14 15  1  0
 15 16  2  0
 16 17  1  0
 17 18  2  0
 18 19  1  0
 19 20  2  0
 20 21  1  0
 13  9  1  0
 20 15  1  0
  1 22  1  0
  1 23  1  0
  1 24  1  0
  2 25  1  0
  3 26  1  0
  3 27  1  0
  4 28  1  0
  4 29  1  0
  5 30  1  0
  8 31  1  0
  8 32  1  0
 10 33  1  0
 11 34  1  0
 13 35  1  0
 14 36  1  0
 17 37  1  0
 19 38  1  0
M  END
>  <Energy>  (379) 
374.73994649752308

>  <compound_id>  (379) 
5150

>  <target_id>  (379) 
1

>  <reference_id>  (379) 
54

>  <inspiration_ids>  (379) 
[54, 112]

>  <energy_score>  (379) 
333.71661194815243

>  <distance_score>  (379) 
3.503909865936281

>  <path>  (379) 
/opt/xchem-fragalysis-2/maxwin/BulkDock/SCRATCH/511018/C5150-P54/C5150-P54.minimised.mol

>  <scratch_subdir>  (379) 
/opt/xchem-fragalysis-2/maxwin/BulkDock/SCRATCH/511018/C5150-P54

>  <fragmenstein_runtime>  (379) 
13.662487268447876

>  <fragmenstein_outcome>  (379) 
too moved

>  <fragmenstein_mode>  (379) 
expansion

>  <fragmenstein_error>  (379) 


$$$$
C5150-P112
     RDKit          3D

 38 39  0  0  0  0  0  0  0  0999 V2000
  -11.3326  -20.6732   21.9527 C   0  0  0  0  0  0  0  0  0  0  0  0
  -11.2905  -21.7514   20.9925 C   0  0  0  0  0  0  0  0  0  0  0  0
   -9.6782  -21.4905   19.9198 C   0  0  0  0  0  0  0  0  0  0  0  0
   -9.1445  -20.9624   17.9931 C   0  0  0  0  0  0  0  0  0  0  0  0
   -9.3486  -21.9177   16.3449 N   0  0  0  0  0  0  0  0  0  0  0  0
   -9.7332  -21.4681   14.9995 C   0  0  0  0  0  0  0  0  0  0  0  0
  -10.1038  -20.3859   14.6067 O   0  0  0  0  0  0  0  0  0  0  0  0
   -9.5442  -22.4992   13.8389 C   0  0  0  0  0  0  0  0  0  0  0  0
  -10.3139  -23.7847   13.7406 C   0  0  0  0  0  0  0  0  0  0  0  0
  -10.1798  -25.0679   14.2334 C   0  0  0  0  0  0  0  0  0  0  0  0
  -11.2512  -25.8023   13.6929 C   0  0  0  0  0  0  0  0  0  0  0  0
  -12.0251  -25.0533   12.9124 N   0  0  0  0  0  0  0  0  0  0  0  0
  -11.4315  -23.8518   12.9380 N   0  0  0  0  0  0  0  0  0  0  0  0
  -11.7700  -22.6388   22.2387 N   0  0  0  0  0  0  0  0  0  0  0  0
  -12.6882  -22.3301   23.4666 C   0  0  0  0  0  0  0  0  0  0  0  0
  -12.0267  -22.1445   24.6028 N   0  0  0  0  0  0  0  0  0  0  0  0
  -12.3494  -22.8421   25.7484 C   0  0  0  0  0  0  0  0  0  0  0  0
  -13.2161  -23.8467   25.8183 N   0  0  0  0  0  0  0  0  0  0  0  0
  -14.0557  -23.8251   24.7839 C   0  0  0  0  0  0  0  0  0  0  0  0
  -13.9388  -22.9281   23.7062 C   0  0  0  0  0  0  0  0  0  0  0  0
  -15.4377  -21.9711   23.8503 Cl  0  0  0  0  0  0  0  0  0  0  0  0
  -12.1215  -20.5501   22.6598 H   0  0  0  0  0  0  0  0  0  0  0  0
  -11.5696  -19.9341   21.2724 H   0  0  0  0  0  0  0  0  0  0  0  0
  -10.4799  -20.7256   22.6311 H   0  0  0  0  0  0  0  0  0  0  0  0
  -12.0855  -21.9259   20.2946 H   0  0  0  0  0  0  0  0  0  0  0  0
   -8.9888  -21.4646   20.7436 H   0  0  0  0  0  0  0  0  0  0  0  0
   -9.6110  -20.4443   19.8856 H   0  0  0  0  0  0  0  0  0  0  0  0
   -8.0756  -20.7552   17.9589 H   0  0  0  0  0  0  0  0  0  0  0  0
   -9.4378  -19.9423   17.7709 H   0  0  0  0  0  0  0  0  0  0  0  0
   -9.0129  -22.8601   16.2904 H   0  0  0  0  0  0  0  0  0  0  0  0
   -9.8462  -21.9441   12.9351 H   0  0  0  0  0  0  0  0  0  0  0  0
   -8.4832  -22.5774   13.6590 H   0  0  0  0  0  0  0  0  0  0  0  0
   -9.4364  -25.4633   14.9019 H   0  0  0  0  0  0  0  0  0  0  0  0
  -11.4986  -26.8457   13.8396 H   0  0  0  0  0  0  0  0  0  0  0  0
  -11.8540  -23.0992   12.4057 H   0  0  0  0  0  0  0  0  0  0  0  0
  -10.8772  -22.6425   22.7653 H   0  0  0  0  0  0  0  0  0  0  0  0
  -11.8253  -22.5849   26.6640 H   0  0  0  0  0  0  0  0  0  0  0  0
  -14.9614  -24.4104   24.9200 H   0  0  0  0  0  0  0  0  0  0  0  0
  1  2  1  0
  2  3  1  0
  3  4  1  0
  4  5  1  0
  5  6  1  0
  6  7  2  0
  6  8  1  0
  8  9  1  0
  9 10  2  0
 10 11  1  0
 11 12  2  0
 12 13  1  0
  2 14  1  0
 14 15  1  0
 15 16  2  0
 16 17  1  0
 17 18  2  0
 18 19  1  0
 19 20  2  0
 20 21  1  0
 13  9  1  0
 20 15  1  0
  1 22  1  0
  1 23  1  0
  1 24  1  0
  2 25  1  0
  3 26  1  0
  3 27  1  0
  4 28  1  0
  4 29  1  0
  5 30  1  0
  8 31  1  0
  8 32  1  0
 10 33  1  0
 11 34  1  0
 13 35  1  0
 14 36  1  0
 17 37  1  0
 19 38  1  0
M  END
>  <Energy>  (380) 
417.56858346150784

>  <compound_id>  (380) 
5150

>  <target_id>  (380) 
1

>  <reference_id>  (380) 
112

>  <inspiration_ids>  (380) 
[54, 112]

>  <energy_score>  (380) 
376.54524891213543

>  <distance_score>  (380) 
3.7391213743407197

>  <path>  (380) 
/opt/xchem-fragalysis-2/maxwin/BulkDock/SCRATCH/511018/C5150-P112/C5150-P112.minimised.mol

>  <scratch_subdir>  (380) 
/opt/xchem-fragalysis-2/maxwin/BulkDock/SCRATCH/511018/C5150-P112

>  <fragmenstein_runtime>  (380) 
13.095116376876831

>  <fragmenstein_outcome>  (380) 
too moved

>  <fragmenstein_mode>  (380) 
expansion

>  <fragmenstein_error>  (380) 


$$$$
C5151-P54
     RDKit          3D

 41 42  0  0  0  0  0  0  0  0999 V2000
  -13.3671  -22.0483   24.1352 C   0  0  0  0  0  0  0  0  0  0  0  0
  -11.9997  -21.8590   23.5674 C   0  0  0  0  0  0  0  0  0  0  0  0
  -11.1273  -22.4584   24.3461 N   0  0  0  0  0  0  0  0  0  0  0  0
   -9.9117  -22.3801   23.8675 C   0  0  0  0  0  0  0  0  0  0  0  0
   -9.5013  -21.6196   22.8012 C   0  0  0  0  0  0  0  0  0  0  0  0
  -10.4053  -21.3746   21.8462 C   0  0  0  0  0  0  0  0  0  0  0  0
  -10.0899  -21.4006   20.4624 N   0  0  0  0  0  0  0  0  0  0  0  0
   -9.1373  -20.6548   19.1338 C   0  0  0  0  0  0  0  0  0  0  0  0
   -7.7130  -19.3858   19.4120 C   0  0  0  0  0  0  0  0  0  0  0  0
   -9.1168  -21.2969   17.3381 C   0  0  0  0  0  0  0  0  0  0  0  0
   -9.7298  -22.6146   15.9458 C   0  0  0  0  0  0  0  0  0  0  0  0
   -9.7945  -23.9619   15.2908 N   0  0  0  0  0  0  0  0  0  0  0  0
  -10.2988  -24.3625   14.0008 C   0  0  0  0  0  0  0  0  0  0  0  0
  -10.8688  -23.7337   13.1520 O   0  0  0  0  0  0  0  0  0  0  0  0
  -10.1298  -25.8752   13.7907 C   0  0  0  0  0  0  0  0  0  0  0  0
  -11.4586  -26.5492   13.8466 C   0  0  0  0  0  0  0  0  0  0  0  0
  -11.8320  -27.8068   14.2620 C   0  0  0  0  0  0  0  0  0  0  0  0
  -13.2272  -27.8368   14.0929 C   0  0  0  0  0  0  0  0  0  0  0  0
  -13.7090  -26.6930   13.6031 N   0  0  0  0  0  0  0  0  0  0  0  0
  -12.6162  -25.9259   13.4570 N   0  0  0  0  0  0  0  0  0  0  0  0
  -11.7094  -21.4408   22.2784 N   0  0  0  0  0  0  0  0  0  0  0  0
  -13.9920  -21.1651   24.0732 H   0  0  0  0  0  0  0  0  0  0  0  0
  -13.8362  -22.8864   23.6332 H   0  0  0  0  0  0  0  0  0  0  0  0
  -13.3199  -22.3400   25.1912 H   0  0  0  0  0  0  0  0  0  0  0  0
   -9.1901  -22.9991   24.3808 H   0  0  0  0  0  0  0  0  0  0  0  0
   -8.4635  -21.4831   22.7341 H   0  0  0  0  0  0  0  0  0  0  0  0
  -11.0821  -21.2178   20.2578 H   0  0  0  0  0  0  0  0  0  0  0  0
   -9.9474  -20.1456   18.7846 H   0  0  0  0  0  0  0  0  0  0  0  0
   -7.8230  -18.6202   20.1838 H   0  0  0  0  0  0  0  0  0  0  0  0
   -6.7122  -19.7290   19.7319 H   0  0  0  0  0  0  0  0  0  0  0  0
   -7.4297  -19.0060   18.4172 H   0  0  0  0  0  0  0  0  0  0  0  0
   -8.0518  -21.1657   17.2163 H   0  0  0  0  0  0  0  0  0  0  0  0
   -9.4749  -22.0307   17.9630 H   0  0  0  0  0  0  0  0  0  0  0  0
   -8.7243  -22.9388   15.5838 H   0  0  0  0  0  0  0  0  0  0  0  0
  -10.2111  -22.0012   15.1835 H   0  0  0  0  0  0  0  0  0  0  0  0
   -9.2986  -24.7304   15.6999 H   0  0  0  0  0  0  0  0  0  0  0  0
   -9.4787  -26.3262   14.5430 H   0  0  0  0  0  0  0  0  0  0  0  0
   -9.6603  -26.0324   12.8133 H   0  0  0  0  0  0  0  0  0  0  0  0
  -11.1910  -28.5900   14.6404 H   0  0  0  0  0  0  0  0  0  0  0  0
  -13.9141  -28.6455   14.3054 H   0  0  0  0  0  0  0  0  0  0  0  0
  -12.7158  -24.9714   13.1157 H   0  0  0  0  0  0  0  0  0  0  0  0
  1  2  1  0
  2  3  2  0
  3  4  1  0
  4  5  2  0
  5  6  1  0
  6  7  1  0
  7  8  1  0
  8  9  1  0
  8 10  1  0
 10 11  1  0
 11 12  1  0
 12 13  1  0
 13 14  2  0
 13 15  1  0
 15 16  1  0
 16 17  2  0
 17 18  1  0
 18 19  2  0
 19 20  1  0
  6 21  2  0
 21  2  1  0
 20 16  1  0
  1 22  1  0
  1 23  1  0
  1 24  1  0
  4 25  1  0
  5 26  1  0
  7 27  1  0
  8 28  1  0
  9 29  1  0
  9 30  1  0
  9 31  1  0
 10 32  1  0
 10 33  1  0
 11 34  1  0
 11 35  1  0
 12 36  1  0
 15 37  1  0
 15 38  1  0
 17 39  1  0
 18 40  1  0
 20 41  1  0
M  END
>  <Energy>  (381) 
335.31533509216416

>  <compound_id>  (381) 
5151

>  <target_id>  (381) 
1

>  <reference_id>  (381) 
54

>  <inspiration_ids>  (381) 
[54, 112]

>  <energy_score>  (381) 
319.60256526549324

>  <distance_score>  (381) 
5.754971467455827

>  <path>  (381) 
/opt/xchem-fragalysis-2/maxwin/BulkDock/SCRATCH/511018/C5151-P54/C5151-P54.minimised.mol

>  <scratch_subdir>  (381) 
/opt/xchem-fragalysis-2/maxwin/BulkDock/SCRATCH/511018/C5151-P54

>  <fragmenstein_runtime>  (381) 
18.59806776046753

>  <fragmenstein_outcome>  (381) 
too moved

>  <fragmenstein_mode>  (381) 
expansion

>  <fragmenstein_error>  (381) 


$$$$
C5151-P112
     RDKit          3D

 41 42  0  0  0  0  0  0  0  0999 V2000
  -11.6506  -22.9981   26.9104 C   0  0  0  0  0  0  0  0  0  0  0  0
  -12.4040  -22.8619   25.6117 C   0  0  0  0  0  0  0  0  0  0  0  0
  -13.5604  -23.4940   25.6478 N   0  0  0  0  0  0  0  0  0  0  0  0
  -14.2910  -23.2706   24.5905 C   0  0  0  0  0  0  0  0  0  0  0  0
  -13.7500  -22.7007   23.4527 C   0  0  0  0  0  0  0  0  0  0  0  0
  -12.4924  -22.2164   23.2725 C   0  0  0  0  0  0  0  0  0  0  0  0
  -11.9538  -22.2525   21.7787 N   0  0  0  0  0  0  0  0  0  0  0  0
  -10.8767  -21.2663   21.3512 C   0  0  0  0  0  0  0  0  0  0  0  0
  -10.0440  -21.3204   22.6149 C   0  0  0  0  0  0  0  0  0  0  0  0
   -9.6104  -21.2574   19.9287 C   0  0  0  0  0  0  0  0  0  0  0  0
   -9.1515  -20.7832   18.0032 C   0  0  0  0  0  0  0  0  0  0  0  0
   -9.3508  -21.7991   16.4045 N   0  0  0  0  0  0  0  0  0  0  0  0
   -9.7435  -21.4009   15.0295 C   0  0  0  0  0  0  0  0  0  0  0  0
  -10.1226  -20.3333   14.5943 O   0  0  0  0  0  0  0  0  0  0  0  0
   -9.5479  -22.4736   13.9057 C   0  0  0  0  0  0  0  0  0  0  0  0
  -10.3118  -23.7588   13.7786 C   0  0  0  0  0  0  0  0  0  0  0  0
  -10.1823  -25.0462   14.2617 C   0  0  0  0  0  0  0  0  0  0  0  0
  -11.2253  -25.7851   13.6746 C   0  0  0  0  0  0  0  0  0  0  0  0
  -11.9741  -25.0379   12.8677 N   0  0  0  0  0  0  0  0  0  0  0  0
  -11.4056  -23.8259   12.9445 N   0  0  0  0  0  0  0  0  0  0  0  0
  -11.8580  -22.2924   24.4366 N   0  0  0  0  0  0  0  0  0  0  0  0
  -12.2580  -23.4999   27.6570 H   0  0  0  0  0  0  0  0  0  0  0  0
  -10.7783  -23.6432   26.7803 H   0  0  0  0  0  0  0  0  0  0  0  0
  -11.3955  -22.0210   27.3196 H   0  0  0  0  0  0  0  0  0  0  0  0
  -15.3039  -23.6517   24.6263 H   0  0  0  0  0  0  0  0  0  0  0  0
  -14.2686  -22.8732   22.5841 H   0  0  0  0  0  0  0  0  0  0  0  0
  -11.4122  -23.1041   21.6987 H   0  0  0  0  0  0  0  0  0  0  0  0
  -11.4620  -20.3757   21.2587 H   0  0  0  0  0  0  0  0  0  0  0  0
  -10.5145  -20.6084   23.3021 H   0  0  0  0  0  0  0  0  0  0  0  0
   -9.9702  -22.2438   23.1667 H   0  0  0  0  0  0  0  0  0  0  0  0
   -9.0037  -21.0916   22.4407 H   0  0  0  0  0  0  0  0  0  0  0  0
   -8.7674  -20.9238   20.4653 H   0  0  0  0  0  0  0  0  0  0  0  0
   -9.9072  -22.2589   19.8802 H   0  0  0  0  0  0  0  0  0  0  0  0
   -9.4704  -19.7864   17.7443 H   0  0  0  0  0  0  0  0  0  0  0  0
   -8.0752  -20.6358   17.9625 H   0  0  0  0  0  0  0  0  0  0  0  0
   -9.0099  -22.7394   16.3865 H   0  0  0  0  0  0  0  0  0  0  0  0
   -8.4816  -22.5608   13.7769 H   0  0  0  0  0  0  0  0  0  0  0  0
   -9.8027  -21.9342   12.9774 H   0  0  0  0  0  0  0  0  0  0  0  0
   -9.4570  -25.4379   14.9524 H   0  0  0  0  0  0  0  0  0  0  0  0
  -11.4666  -26.8323   13.8025 H   0  0  0  0  0  0  0  0  0  0  0  0
  -11.8230  -23.0676   12.4168 H   0  0  0  0  0  0  0  0  0  0  0  0
  1  2  1  0
  2  3  2  0
  3  4  1  0
  4  5  2  0
  5  6  1  0
  6  7  1  0
  7  8  1  0
  8  9  1  0
  8 10  1  0
 10 11  1  0
 11 12  1  0
 12 13  1  0
 13 14  2  0
 13 15  1  0
 15 16  1  0
 16 17  2  0
 17 18  1  0
 18 19  2  0
 19 20  1  0
  6 21  2  0
 21  2  1  0
 20 16  1  0
  1 22  1  0
  1 23  1  0
  1 24  1  0
  4 25  1  0
  5 26  1  0
  7 27  1  0
  8 28  1  0
  9 29  1  0
  9 30  1  0
  9 31  1  0
 10 32  1  0
 10 33  1  0
 11 34  1  0
 11 35  1  0
 12 36  1  0
 15 37  1  0
 15 38  1  0
 17 39  1  0
 18 40  1  0
 20 41  1  0
M  END
>  <Energy>  (382) 
261.45887167553866

>  <compound_id>  (382) 
5151

>  <target_id>  (382) 
1

>  <reference_id>  (382) 
112

>  <inspiration_ids>  (382) 
[54, 112]

>  <energy_score>  (382) 
245.74610184886802

>  <distance_score>  (382) 
4.235827286616592

>  <path>  (382) 
/opt/xchem-fragalysis-2/maxwin/BulkDock/SCRATCH/511018/C5151-P112/C5151-P112.minimised.mol

>  <scratch_subdir>  (382) 
/opt/xchem-fragalysis-2/maxwin/BulkDock/SCRATCH/511018/C5151-P112

>  <fragmenstein_runtime>  (382) 
12.013120651245117

>  <fragmenstein_outcome>  (382) 
too moved

>  <fragmenstein_mode>  (382) 
expansion

>  <fragmenstein_error>  (382) 


$$$$
C5154-P54
     RDKit          3D

 41 42  0  0  0  0  0  0  0  0999 V2000
  -13.4836  -21.9991   24.2352 C   0  0  0  0  0  0  0  0  0  0  0  0
  -12.0634  -21.4458   24.2577 C   0  0  0  0  0  0  0  0  0  0  0  0
  -11.8998  -20.1158   23.7344 C   0  0  0  0  0  0  0  0  0  0  0  0
  -11.0391  -22.2082   23.4679 C   0  0  0  0  0  0  0  0  0  0  0  0
   -9.9391  -21.4424   22.2061 C   0  0  0  0  0  0  0  0  0  0  0  0
  -10.0185  -21.6303   20.4705 N   0  0  0  0  0  0  0  0  0  0  0  0
   -9.1977  -20.7855   19.1874 C   0  0  0  0  0  0  0  0  0  0  0  0
   -8.4566  -19.8143   19.3215 O   0  0  0  0  0  0  0  0  0  0  0  0
   -9.1952  -21.3576   17.3127 C   0  0  0  0  0  0  0  0  0  0  0  0
   -9.7398  -22.6679   15.9139 C   0  0  0  0  0  0  0  0  0  0  0  0
   -9.3669  -23.9516   15.4672 C   0  0  0  0  0  0  0  0  0  0  0  0
   -9.9224  -24.3906   14.2608 C   0  0  0  0  0  0  0  0  0  0  0  0
  -10.4587  -23.3501   13.6854 N   0  0  0  0  0  0  0  0  0  0  0  0
  -10.2666  -22.3982   14.6280 N   0  0  0  0  0  0  0  0  0  0  0  0
  -10.4261  -23.1458   24.5798 N   0  0  0  0  0  0  0  0  0  0  0  0
  -10.7951  -23.3363   25.9468 C   0  0  0  0  0  0  0  0  0  0  0  0
   -9.8408  -22.9151   26.8002 N   0  0  0  0  0  0  0  0  0  0  0  0
  -10.0110  -22.9804   28.1368 C   0  0  0  0  0  0  0  0  0  0  0  0
  -11.0648  -23.4798   28.7644 N   0  0  0  0  0  0  0  0  0  0  0  0
  -11.9970  -23.9540   27.9332 C   0  0  0  0  0  0  0  0  0  0  0  0
  -11.9253  -23.9405   26.5369 C   0  0  0  0  0  0  0  0  0  0  0  0
  -13.2193  -24.8622   25.8452 Cl  0  0  0  0  0  0  0  0  0  0  0  0
  -14.2321  -21.2190   24.0999 H   0  0  0  0  0  0  0  0  0  0  0  0
  -13.6145  -22.7903   23.5038 H   0  0  0  0  0  0  0  0  0  0  0  0
  -13.7497  -22.4174   25.2052 H   0  0  0  0  0  0  0  0  0  0  0  0
  -11.8229  -21.3713   25.3149 H   0  0  0  0  0  0  0  0  0  0  0  0
  -12.6136  -19.4829   24.2097 H   0  0  0  0  0  0  0  0  0  0  0  0
  -11.9788  -20.1806   22.6552 H   0  0  0  0  0  0  0  0  0  0  0  0
  -10.9291  -19.7128   23.9351 H   0  0  0  0  0  0  0  0  0  0  0  0
  -11.6623  -22.6838   22.7406 H   0  0  0  0  0  0  0  0  0  0  0  0
   -9.9464  -20.4084   22.4084 H   0  0  0  0  0  0  0  0  0  0  0  0
   -8.9662  -21.7885   22.5163 H   0  0  0  0  0  0  0  0  0  0  0  0
  -10.4716  -22.4033   20.1037 H   0  0  0  0  0  0  0  0  0  0  0  0
   -9.6033  -22.1214   17.8644 H   0  0  0  0  0  0  0  0  0  0  0  0
   -9.6841  -20.4857   16.9437 H   0  0  0  0  0  0  0  0  0  0  0  0
   -8.6839  -24.5350   15.9941 H   0  0  0  0  0  0  0  0  0  0  0  0
   -9.8559  -25.3414   13.7522 H   0  0  0  0  0  0  0  0  0  0  0  0
  -10.7428  -21.5519   14.4370 H   0  0  0  0  0  0  0  0  0  0  0  0
   -9.4315  -22.9486   24.5887 H   0  0  0  0  0  0  0  0  0  0  0  0
   -9.2040  -22.6045   28.7514 H   0  0  0  0  0  0  0  0  0  0  0  0
  -12.8483  -24.3998   28.4437 H   0  0  0  0  0  0  0  0  0  0  0  0
  1  2  1  0
  2  3  1  0
  2  4  1  0
  4  5  1  0
  5  6  1  0
  6  7  1  0
  7  8  2  0
  7  9  1  0
  9 10  1  0
 10 11  2  0
 11 12  1  0
 12 13  2  0
 13 14  1  0
  4 15  1  0
 15 16  1  0
 16 17  2  0
 17 18  1  0
 18 19  2  0
 19 20  1  0
 20 21  2  0
 21 22  1  0
 14 10  1  0
 21 16  1  0
  1 23  1  0
  1 24  1  0
  1 25  1  0
  2 26  1  0
  3 27  1  0
  3 28  1  0
  3 29  1  0
  4 30  1  0
  5 31  1  0
  5 32  1  0
  6 33  1  0
  9 34  1  0
  9 35  1  0
 11 36  1  0
 12 37  1  0
 14 38  1  0
 15 39  1  0
 18 40  1  0
 20 41  1  0
M  END
>  <Energy>  (383) 
400.79689662449636

>  <compound_id>  (383) 
5154

>  <target_id>  (383) 
1

>  <reference_id>  (383) 
54

>  <inspiration_ids>  (383) 
[54, 112]

>  <energy_score>  (383) 
335.803468160963

>  <distance_score>  (383) 
3.9358225370330944

>  <path>  (383) 
/opt/xchem-fragalysis-2/maxwin/BulkDock/SCRATCH/511018/C5154-P54/C5154-P54.minimised.mol

>  <scratch_subdir>  (383) 
/opt/xchem-fragalysis-2/maxwin/BulkDock/SCRATCH/511018/C5154-P54

>  <fragmenstein_runtime>  (383) 
8.577550411224365

>  <fragmenstein_outcome>  (383) 
too moved

>  <fragmenstein_mode>  (383) 
expansion

>  <fragmenstein_error>  (383) 


$$$$
C5154-P112
     RDKit          3D

 41 42  0  0  0  0  0  0  0  0999 V2000
  -14.2542  -23.1878   24.4685 C   0  0  0  0  0  0  0  0  0  0  0  0
  -13.4600  -22.1440   23.6865 C   0  0  0  0  0  0  0  0  0  0  0  0
  -12.9576  -20.9130   24.3859 C   0  0  0  0  0  0  0  0  0  0  0  0
  -12.2214  -22.4519   22.9187 C   0  0  0  0  0  0  0  0  0  0  0  0
  -12.2248  -22.9786   21.1458 C   0  0  0  0  0  0  0  0  0  0  0  0
  -12.3985  -24.5681   20.4289 N   0  0  0  0  0  0  0  0  0  0  0  0
  -13.2742  -25.0661   19.2031 C   0  0  0  0  0  0  0  0  0  0  0  0
  -14.0917  -24.4732   18.5251 O   0  0  0  0  0  0  0  0  0  0  0  0
  -12.9905  -26.5126   18.6901 C   0  0  0  0  0  0  0  0  0  0  0  0
  -13.1187  -26.6063   17.1837 C   0  0  0  0  0  0  0  0  0  0  0  0
  -14.2143  -26.6566   16.3480 C   0  0  0  0  0  0  0  0  0  0  0  0
  -13.6823  -26.6983   15.0476 C   0  0  0  0  0  0  0  0  0  0  0  0
  -12.3495  -26.6969   15.0473 N   0  0  0  0  0  0  0  0  0  0  0  0
  -12.0301  -26.6312   16.3470 N   0  0  0  0  0  0  0  0  0  0  0  0
  -11.2802  -22.9148   24.0983 N   0  0  0  0  0  0  0  0  0  0  0  0
  -11.6292  -23.3362   25.6118 C   0  0  0  0  0  0  0  0  0  0  0  0
  -12.0744  -22.4113   26.4780 N   0  0  0  0  0  0  0  0  0  0  0  0
  -11.6853  -22.3708   27.7605 C   0  0  0  0  0  0  0  0  0  0  0  0
  -10.8488  -23.2246   28.3010 N   0  0  0  0  0  0  0  0  0  0  0  0
  -10.6406  -24.2949   27.5364 C   0  0  0  0  0  0  0  0  0  0  0  0
  -11.0410  -24.4539   26.2261 C   0  0  0  0  0  0  0  0  0  0  0  0
  -11.4009  -26.1208   25.8892 Cl  0  0  0  0  0  0  0  0  0  0  0  0
  -15.3259  -22.9557   24.4139 H   0  0  0  0  0  0  0  0  0  0  0  0
  -14.1180  -24.1996   24.0899 H   0  0  0  0  0  0  0  0  0  0  0  0
  -14.0428  -23.2247   25.5267 H   0  0  0  0  0  0  0  0  0  0  0  0
  -14.2159  -21.7817   23.0727 H   0  0  0  0  0  0  0  0  0  0  0  0
  -12.2618  -20.3545   23.7824 H   0  0  0  0  0  0  0  0  0  0  0  0
  -12.3189  -20.9615   25.2348 H   0  0  0  0  0  0  0  0  0  0  0  0
  -13.8144  -20.2687   24.5700 H   0  0  0  0  0  0  0  0  0  0  0  0
  -11.6867  -21.5364   22.6276 H   0  0  0  0  0  0  0  0  0  0  0  0
  -12.6485  -22.2926   20.4649 H   0  0  0  0  0  0  0  0  0  0  0  0
  -11.1722  -22.7428   21.0039 H   0  0  0  0  0  0  0  0  0  0  0  0
  -11.7632  -25.2971   20.7047 H   0  0  0  0  0  0  0  0  0  0  0  0
  -11.9637  -26.7859   18.8703 H   0  0  0  0  0  0  0  0  0  0  0  0
  -13.6800  -27.2100   19.1740 H   0  0  0  0  0  0  0  0  0  0  0  0
  -15.2559  -26.6315   16.6366 H   0  0  0  0  0  0  0  0  0  0  0  0
  -14.2104  -26.7280   14.1031 H   0  0  0  0  0  0  0  0  0  0  0  0
  -11.0441  -26.6017   16.5871 H   0  0  0  0  0  0  0  0  0  0  0  0
  -10.2871  -22.8493   23.8719 H   0  0  0  0  0  0  0  0  0  0  0  0
  -12.0630  -21.5732   28.3847 H   0  0  0  0  0  0  0  0  0  0  0  0
  -10.2572  -25.1336   28.0858 H   0  0  0  0  0  0  0  0  0  0  0  0
  1  2  1  0
  2  3  1  0
  2  4  1  0
  4  5  1  0
  5  6  1  0
  6  7  1  0
  7  8  2  0
  7  9  1  0
  9 10  1  0
 10 11  2  0
 11 12  1  0
 12 13  2  0
 13 14  1  0
  4 15  1  0
 15 16  1  0
 16 17  2  0
 17 18  1  0
 18 19  2  0
 19 20  1  0
 20 21  2  0
 21 22  1  0
 14 10  1  0
 21 16  1  0
  1 23  1  0
  1 24  1  0
  1 25  1  0
  2 26  1  0
  3 27  1  0
  3 28  1  0
  3 29  1  0
  4 30  1  0
  5 31  1  0
  5 32  1  0
  6 33  1  0
  9 34  1  0
  9 35  1  0
 11 36  1  0
 12 37  1  0
 14 38  1  0
 15 39  1  0
 18 40  1  0
 20 41  1  0
M  END
>  <Energy>  (384) 
264.03859991916744

>  <compound_id>  (384) 
5154

>  <target_id>  (384) 
1

>  <reference_id>  (384) 
112

>  <inspiration_ids>  (384) 
[54, 112]

>  <energy_score>  (384) 
199.0451714556359

>  <distance_score>  (384) 
4.464916506739388

>  <path>  (384) 
/opt/xchem-fragalysis-2/maxwin/BulkDock/SCRATCH/511018/C5154-P112/C5154-P112.minimised.mol

>  <scratch_subdir>  (384) 
/opt/xchem-fragalysis-2/maxwin/BulkDock/SCRATCH/511018/C5154-P112

>  <fragmenstein_runtime>  (384) 
12.513905048370361

>  <fragmenstein_outcome>  (384) 
too moved

>  <fragmenstein_mode>  (384) 
expansion

>  <fragmenstein_error>  (384) 


$$$$
C5155-P54
     RDKit          3D

 44 45  0  0  0  0  0  0  0  0999 V2000
  -10.4090  -23.8509   26.3018 C   0  0  0  0  0  0  0  0  0  0  0  0
  -10.6739  -22.9912   25.0948 C   0  0  0  0  0  0  0  0  0  0  0  0
  -11.9078  -22.5155   25.1101 N   0  0  0  0  0  0  0  0  0  0  0  0
  -12.0597  -21.4936   24.3002 C   0  0  0  0  0  0  0  0  0  0  0  0
  -11.0468  -20.9883   23.5046 C   0  0  0  0  0  0  0  0  0  0  0  0
   -9.9808  -21.7722   23.1040 C   0  0  0  0  0  0  0  0  0  0  0  0
   -9.2375  -21.4844   21.6802 N   0  0  0  0  0  0  0  0  0  0  0  0
   -9.7897  -21.7322   19.9127 C   0  0  0  0  0  0  0  0  0  0  0  0
   -9.3094  -21.4546   17.8796 C   0  0  0  0  0  0  0  0  0  0  0  0
   -9.5702  -22.7249   16.3796 N   0  0  0  0  0  0  0  0  0  0  0  0
  -10.1047  -22.5557   15.0830 C   0  0  0  0  0  0  0  0  0  0  0  0
  -10.6172  -21.6201   14.5798 O   0  0  0  0  0  0  0  0  0  0  0  0
   -9.9369  -23.7020   14.0470 C   0  0  0  0  0  0  0  0  0  0  0  0
  -10.5714  -25.0420   14.2225 C   0  0  0  0  0  0  0  0  0  0  0  0
  -10.2467  -26.2192   14.8616 C   0  0  0  0  0  0  0  0  0  0  0  0
  -11.3019  -27.1054   14.5758 C   0  0  0  0  0  0  0  0  0  0  0  0
  -12.2354  -26.5471   13.8068 N   0  0  0  0  0  0  0  0  0  0  0  0
  -11.7518  -25.3176   13.5741 N   0  0  0  0  0  0  0  0  0  0  0  0
  -11.2055  -22.0388   20.5661 C   0  0  0  0  0  0  0  0  0  0  0  0
  -12.3876  -22.9409   20.4629 C   0  0  0  0  0  0  0  0  0  0  0  0
  -11.6572  -20.7890   21.0884 C   0  0  0  0  0  0  0  0  0  0  0  0
   -9.7492  -22.7483   24.0560 N   0  0  0  0  0  0  0  0  0  0  0  0
  -10.0886  -24.8535   26.0144 H   0  0  0  0  0  0  0  0  0  0  0  0
  -11.3284  -23.9860   26.8854 H   0  0  0  0  0  0  0  0  0  0  0  0
   -9.6957  -23.3612   26.9683 H   0  0  0  0  0  0  0  0  0  0  0  0
  -13.0167  -21.0015   24.3306 H   0  0  0  0  0  0  0  0  0  0  0  0
  -11.1459  -19.9498   23.2667 H   0  0  0  0  0  0  0  0  0  0  0  0
   -9.1373  -20.4714   21.7158 H   0  0  0  0  0  0  0  0  0  0  0  0
   -9.6181  -20.6939   19.8200 H   0  0  0  0  0  0  0  0  0  0  0  0
   -8.2723  -21.1452   17.7344 H   0  0  0  0  0  0  0  0  0  0  0  0
   -9.6850  -20.5336   17.4676 H   0  0  0  0  0  0  0  0  0  0  0  0
   -9.1390  -23.6173   16.4349 H   0  0  0  0  0  0  0  0  0  0  0  0
  -10.4091  -23.3044   13.1291 H   0  0  0  0  0  0  0  0  0  0  0  0
   -8.9121  -23.7114   13.7143 H   0  0  0  0  0  0  0  0  0  0  0  0
   -9.3828  -26.4405   15.4650 H   0  0  0  0  0  0  0  0  0  0  0  0
  -11.4268  -28.1306   14.8990 H   0  0  0  0  0  0  0  0  0  0  0  0
  -12.2900  -24.6880   12.9899 H   0  0  0  0  0  0  0  0  0  0  0  0
  -10.9711  -22.5583   21.4411 H   0  0  0  0  0  0  0  0  0  0  0  0
  -12.9249  -22.7981   21.3952 H   0  0  0  0  0  0  0  0  0  0  0  0
  -12.3031  -24.0388   20.5050 H   0  0  0  0  0  0  0  0  0  0  0  0
  -12.8983  -22.7292   19.5363 H   0  0  0  0  0  0  0  0  0  0  0  0
  -10.9837  -20.1672   21.5518 H   0  0  0  0  0  0  0  0  0  0  0  0
  -11.9748  -20.1873   20.3000 H   0  0  0  0  0  0  0  0  0  0  0  0
  -12.3402  -20.9767   21.8847 H   0  0  0  0  0  0  0  0  0  0  0  0
  1  2  1  0
  2  3  2  0
  3  4  1  0
  4  5  2  0
  5  6  1  0
  6  7  1  0
  7  8  1  0
  8  9  1  0
  9 10  1  0
 10 11  1  0
 11 12  2  0
 11 13  1  0
 13 14  1  0
 14 15  2  0
 15 16  1  0
 16 17  2  0
 17 18  1  0
  8 19  1  0
 19 20  1  0
 19 21  1  0
  6 22  2  0
 22  2  1  0
 18 14  1  0
  1 23  1  0
  1 24  1  0
  1 25  1  0
  4 26  1  0
  5 27  1  0
  7 28  1  0
  8 29  1  0
  9 30  1  0
  9 31  1  0
 10 32  1  0
 13 33  1  0
 13 34  1  0
 15 35  1  0
 16 36  1  0
 18 37  1  0
 19 38  1  0
 20 39  1  0
 20 40  1  0
 20 41  1  0
 21 42  1  0
 21 43  1  0
 21 44  1  0
M  END
>  <Energy>  (385) 
459.08908712748689

>  <compound_id>  (385) 
5155

>  <target_id>  (385) 
1

>  <reference_id>  (385) 
54

>  <inspiration_ids>  (385) 
[54, 112]

>  <energy_score>  (385) 
439.4455384004252

>  <distance_score>  (385) 
4.06216827072422

>  <path>  (385) 
/opt/xchem-fragalysis-2/maxwin/BulkDock/SCRATCH/511018/C5155-P54/C5155-P54.minimised.mol

>  <scratch_subdir>  (385) 
/opt/xchem-fragalysis-2/maxwin/BulkDock/SCRATCH/511018/C5155-P54

>  <fragmenstein_runtime>  (385) 
13.442394971847534

>  <fragmenstein_outcome>  (385) 
too moved

>  <fragmenstein_mode>  (385) 
expansion

>  <fragmenstein_error>  (385) 


$$$$
C5155-P112
     RDKit          3D

 44 45  0  0  0  0  0  0  0  0999 V2000
  -11.0273  -24.9515   27.2171 C   0  0  0  0  0  0  0  0  0  0  0  0
  -12.3225  -24.6463   26.5100 C   0  0  0  0  0  0  0  0  0  0  0  0
  -12.3790  -23.3837   26.1084 N   0  0  0  0  0  0  0  0  0  0  0  0
  -13.3628  -23.1064   25.2495 C   0  0  0  0  0  0  0  0  0  0  0  0
  -14.3559  -23.9846   24.8503 C   0  0  0  0  0  0  0  0  0  0  0  0
  -14.2502  -25.2972   25.2220 C   0  0  0  0  0  0  0  0  0  0  0  0
  -15.0372  -26.3274   24.6695 N   0  0  0  0  0  0  0  0  0  0  0  0
  -16.5271  -26.6079   24.2959 C   0  0  0  0  0  0  0  0  0  0  0  0
  -17.1859  -26.5388   22.7776 C   0  0  0  0  0  0  0  0  0  0  0  0
  -16.6664  -27.2786   21.5767 N   0  0  0  0  0  0  0  0  0  0  0  0
  -16.8114  -26.9550   20.0188 C   0  0  0  0  0  0  0  0  0  0  0  0
  -17.4234  -26.1090   19.4691 O   0  0  0  0  0  0  0  0  0  0  0  0
  -15.8848  -27.8834   19.1209 C   0  0  0  0  0  0  0  0  0  0  0  0
  -14.8901  -27.1746   18.1066 C   0  0  0  0  0  0  0  0  0  0  0  0
  -13.5571  -27.4371   17.7917 C   0  0  0  0  0  0  0  0  0  0  0  0
  -13.2242  -26.5818   16.7244 C   0  0  0  0  0  0  0  0  0  0  0  0
  -14.2500  -25.8060   16.3788 N   0  0  0  0  0  0  0  0  0  0  0  0
  -15.2488  -26.1872   17.2079 N   0  0  0  0  0  0  0  0  0  0  0  0
  -17.5614  -26.0835   25.3337 C   0  0  0  0  0  0  0  0  0  0  0  0
  -17.8184  -24.5816   25.2815 C   0  0  0  0  0  0  0  0  0  0  0  0
  -17.2868  -26.5870   26.7527 C   0  0  0  0  0  0  0  0  0  0  0  0
  -13.2116  -25.6352   26.0784 N   0  0  0  0  0  0  0  0  0  0  0  0
  -10.8341  -24.2492   28.0307 H   0  0  0  0  0  0  0  0  0  0  0  0
  -10.2310  -24.8113   26.4810 H   0  0  0  0  0  0  0  0  0  0  0  0
  -10.9932  -25.9921   27.5461 H   0  0  0  0  0  0  0  0  0  0  0  0
  -13.3000  -22.1279   24.7828 H   0  0  0  0  0  0  0  0  0  0  0  0
  -15.1596  -23.5958   24.2560 H   0  0  0  0  0  0  0  0  0  0  0  0
  -14.7179  -27.1099   25.2468 H   0  0  0  0  0  0  0  0  0  0  0  0
  -16.5782  -27.6944   24.4523 H   0  0  0  0  0  0  0  0  0  0  0  0
  -17.3248  -25.5005   22.4920 H   0  0  0  0  0  0  0  0  0  0  0  0
  -18.2050  -26.9359   22.8738 H   0  0  0  0  0  0  0  0  0  0  0  0
  -16.1354  -28.1183   21.6976 H   0  0  0  0  0  0  0  0  0  0  0  0
  -15.3024  -28.5577   19.7451 H   0  0  0  0  0  0  0  0  0  0  0  0
  -16.5605  -28.5077   18.5226 H   0  0  0  0  0  0  0  0  0  0  0  0
  -12.9204  -28.1741   18.2600 H   0  0  0  0  0  0  0  0  0  0  0  0
  -12.2858  -26.4921   16.1921 H   0  0  0  0  0  0  0  0  0  0  0  0
  -16.1552  -25.7325   17.1211 H   0  0  0  0  0  0  0  0  0  0  0  0
  -18.5250  -26.5403   25.0632 H   0  0  0  0  0  0  0  0  0  0  0  0
  -18.6579  -24.3173   25.9344 H   0  0  0  0  0  0  0  0  0  0  0  0
  -18.0813  -24.2552   24.2712 H   0  0  0  0  0  0  0  0  0  0  0  0
  -16.9639  -23.9974   25.6098 H   0  0  0  0  0  0  0  0  0  0  0  0
  -18.0234  -26.1890   27.4585 H   0  0  0  0  0  0  0  0  0  0  0  0
  -16.2942  -26.3206   27.1126 H   0  0  0  0  0  0  0  0  0  0  0  0
  -17.3572  -27.6801   26.7864 H   0  0  0  0  0  0  0  0  0  0  0  0
  1  2  1  0
  2  3  2  0
  3  4  1  0
  4  5  2  0
  5  6  1  0
  6  7  1  0
  7  8  1  0
  8  9  1  0
  9 10  1  0
 10 11  1  0
 11 12  2  0
 11 13  1  0
 13 14  1  0
 14 15  2  0
 15 16  1  0
 16 17  2  0
 17 18  1  0
  8 19  1  0
 19 20  1  0
 19 21  1  0
  6 22  2  0
 22  2  1  0
 18 14  1  0
  1 23  1  0
  1 24  1  0
  1 25  1  0
  4 26  1  0
  5 27  1  0
  7 28  1  0
  8 29  1  0
  9 30  1  0
  9 31  1  0
 10 32  1  0
 13 33  1  0
 13 34  1  0
 15 35  1  0
 16 36  1  0
 18 37  1  0
 19 38  1  0
 20 39  1  0
 20 40  1  0
 20 41  1  0
 21 42  1  0
 21 43  1  0
 21 44  1  0
M  END
>  <Energy>  (386) 
56.153779510388134

>  <compound_id>  (386) 
5155

>  <target_id>  (386) 
1

>  <reference_id>  (386) 
112

>  <inspiration_ids>  (386) 
[54, 112]

>  <energy_score>  (386) 
11.538760341355044

>  <distance_score>  (386) 
5.951107637730589

>  <path>  (386) 
/opt/xchem-fragalysis-2/maxwin/BulkDock/SCRATCH/511018/C5155-P112/C5155-P112.minimised.mol

>  <scratch_subdir>  (386) 
/opt/xchem-fragalysis-2/maxwin/BulkDock/SCRATCH/511018/C5155-P112

>  <fragmenstein_runtime>  (386) 
11.528103351593018

>  <fragmenstein_outcome>  (386) 
too moved

>  <fragmenstein_mode>  (386) 
expansion

>  <fragmenstein_error>  (386) 


$$$$
C5156-P54
     RDKit          3D

 36 38  0  0  0  0  0  0  0  0999 V2000
   -9.1993  -22.2068   21.0757 C   0  0  0  0  0  0  0  0  0  0  0  0
   -7.9065  -23.8740   21.4057 C   0  0  0  0  0  0  0  0  0  0  0  0
   -7.0681  -24.5529   19.4592 C   0  0  0  0  0  0  0  0  0  0  0  0
   -7.6904  -24.8173   17.4748 N   0  0  0  0  0  0  0  0  0  0  0  0
   -8.7546  -26.1998   16.6844 C   0  0  0  0  0  0  0  0  0  0  0  0
   -9.1826  -27.2418   17.2172 O   0  0  0  0  0  0  0  0  0  0  0  0
   -9.3428  -26.0731   15.2148 C   0  0  0  0  0  0  0  0  0  0  0  0
   -9.6111  -27.2358   14.5161 C   0  0  0  0  0  0  0  0  0  0  0  0
  -10.3003  -27.0782   13.3392 C   0  0  0  0  0  0  0  0  0  0  0  0
  -10.7096  -25.8859   12.8673 N   0  0  0  0  0  0  0  0  0  0  0  0
  -10.4175  -24.8229   13.6330 C   0  0  0  0  0  0  0  0  0  0  0  0
   -9.7888  -24.8587   14.8152 N   0  0  0  0  0  0  0  0  0  0  0  0
   -8.5493  -22.7337   22.8902 N   0  0  0  0  0  0  0  0  0  0  0  0
  -10.0607  -22.1497   23.4287 C   0  0  0  0  0  0  0  0  0  0  0  0
  -10.2851  -22.8062   24.6031 C   0  0  0  0  0  0  0  0  0  0  0  0
  -11.0879  -23.0068   25.9080 C   0  0  0  0  0  0  0  0  0  0  0  0
  -11.6286  -22.1212   26.7965 C   0  0  0  0  0  0  0  0  0  0  0  0
  -11.9061  -22.8711   27.9598 C   0  0  0  0  0  0  0  0  0  0  0  0
  -11.6279  -24.1657   27.8055 N   0  0  0  0  0  0  0  0  0  0  0  0
  -11.0162  -24.1842   26.6135 N   0  0  0  0  0  0  0  0  0  0  0  0
   -9.1874  -23.4996   24.6782 N   0  0  0  0  0  0  0  0  0  0  0  0
   -8.1282  -22.9422   24.0930 N   0  0  0  0  0  0  0  0  0  0  0  0
   -9.0992  -21.2895   21.6829 H   0  0  0  0  0  0  0  0  0  0  0  0
   -9.2306  -21.6208   20.1300 H   0  0  0  0  0  0  0  0  0  0  0  0
  -10.2892  -22.4255   20.9521 H   0  0  0  0  0  0  0  0  0  0  0  0
   -6.8397  -23.7267   21.8546 H   0  0  0  0  0  0  0  0  0  0  0  0
   -6.1663  -23.9500   19.2805 H   0  0  0  0  0  0  0  0  0  0  0  0
   -6.3622  -25.4096   19.5108 H   0  0  0  0  0  0  0  0  0  0  0  0
   -7.4502  -24.1061   16.7669 H   0  0  0  0  0  0  0  0  0  0  0  0
   -9.3142  -28.2072   14.8868 H   0  0  0  0  0  0  0  0  0  0  0  0
  -10.5563  -27.9347   12.7225 H   0  0  0  0  0  0  0  0  0  0  0  0
  -10.7189  -23.8470   13.2667 H   0  0  0  0  0  0  0  0  0  0  0  0
  -10.5641  -21.4172   22.8180 H   0  0  0  0  0  0  0  0  0  0  0  0
  -11.6275  -21.0509   26.7133 H   0  0  0  0  0  0  0  0  0  0  0  0
  -12.2725  -22.5212   28.9168 H   0  0  0  0  0  0  0  0  0  0  0  0
  -10.5266  -25.0250   26.3359 H   0  0  0  0  0  0  0  0  0  0  0  0
  1  2  1  0
  2  3  1  0
  3  4  1  0
  4  5  1  0
  5  6  2  0
  5  7  1  0
  7  8  2  0
  8  9  1  0
  9 10  2  0
 10 11  1  0
 11 12  2  0
  2 13  1  0
 13 14  1  0
 14 15  2  0
 15 16  1  0
 16 17  2  0
 17 18  1  0
 18 19  2  0
 19 20  1  0
 15 21  1  0
 21 22  2  0
 12  7  1  0
 22 13  1  0
 20 16  1  0
  1 23  1  0
  1 24  1  0
  1 25  1  0
  2 26  1  0
  3 27  1  0
  3 28  1  0
  4 29  1  0
  8 30  1  0
  9 31  1  0
 11 32  1  0
 14 33  1  0
 17 34  1  0
 18 35  1  0
 20 36  1  0
M  END
>  <Energy>  (387) 
782.57819433631073

>  <compound_id>  (387) 
5156

>  <target_id>  (387) 
1

>  <reference_id>  (387) 
54

>  <inspiration_ids>  (387) 
[54, 112]

>  <energy_score>  (387) 
753.6004899857304

>  <distance_score>  (387) 
6.934810356260186

>  <path>  (387) 
/opt/xchem-fragalysis-2/maxwin/BulkDock/SCRATCH/511018/C5156-P54/C5156-P54.minimised.mol

>  <scratch_subdir>  (387) 
/opt/xchem-fragalysis-2/maxwin/BulkDock/SCRATCH/511018/C5156-P54

>  <fragmenstein_runtime>  (387) 
14.970670700073242

>  <fragmenstein_outcome>  (387) 
too moved

>  <fragmenstein_mode>  (387) 
expansion

>  <fragmenstein_error>  (387) 


$$$$
C5156-P112
     RDKit          3D

 36 38  0  0  0  0  0  0  0  0999 V2000
  -10.9563  -27.1445   27.6590 C   0  0  0  0  0  0  0  0  0  0  0  0
  -10.3661  -25.8007   27.0781 C   0  0  0  0  0  0  0  0  0  0  0  0
  -10.6955  -26.0880   25.0201 C   0  0  0  0  0  0  0  0  0  0  0  0
  -10.5705  -26.7598   22.9061 N   0  0  0  0  0  0  0  0  0  0  0  0
  -10.8659  -25.6909   21.1325 C   0  0  0  0  0  0  0  0  0  0  0  0
  -11.0129  -24.4862   21.0188 O   0  0  0  0  0  0  0  0  0  0  0  0
  -11.3207  -26.5694   19.2386 C   0  0  0  0  0  0  0  0  0  0  0  0
  -11.0854  -26.6686   17.7173 C   0  0  0  0  0  0  0  0  0  0  0  0
  -12.0169  -26.9188   16.6910 C   0  0  0  0  0  0  0  0  0  0  0  0
  -13.3209  -26.9568   16.8851 N   0  0  0  0  0  0  0  0  0  0  0  0
  -13.6409  -26.6766   18.1313 C   0  0  0  0  0  0  0  0  0  0  0  0
  -12.7763  -26.4576   19.1567 N   0  0  0  0  0  0  0  0  0  0  0  0
   -9.6128  -24.9099   28.6481 N   0  0  0  0  0  0  0  0  0  0  0  0
   -8.4901  -25.3296   30.1723 C   0  0  0  0  0  0  0  0  0  0  0  0
   -9.0994  -24.8789   31.6884 C   0  0  0  0  0  0  0  0  0  0  0  0
   -8.8894  -24.9760   33.7442 C   0  0  0  0  0  0  0  0  0  0  0  0
   -7.8108  -24.8575   35.5427 C   0  0  0  0  0  0  0  0  0  0  0  0
   -9.1574  -25.5403   37.2104 C   0  0  0  0  0  0  0  0  0  0  0  0
  -10.6856  -25.8380   36.3812 N   0  0  0  0  0  0  0  0  0  0  0  0
  -10.2606  -26.1517   34.3754 N   0  0  0  0  0  0  0  0  0  0  0  0
  -10.2834  -24.0470   31.0610 N   0  0  0  0  0  0  0  0  0  0  0  0
  -10.4234  -23.9343   29.3307 N   0  0  0  0  0  0  0  0  0  0  0  0
  -10.4929  -27.5066   28.5646 H   0  0  0  0  0  0  0  0  0  0  0  0
  -10.7770  -27.9817   26.9761 H   0  0  0  0  0  0  0  0  0  0  0  0
  -12.0421  -27.1144   27.7412 H   0  0  0  0  0  0  0  0  0  0  0  0
  -11.1447  -25.0207   27.1549 H   0  0  0  0  0  0  0  0  0  0  0  0
  -11.7434  -25.7989   25.1842 H   0  0  0  0  0  0  0  0  0  0  0  0
  -10.7936  -27.1717   25.2356 H   0  0  0  0  0  0  0  0  0  0  0  0
  -10.3969  -27.7286   22.7208 H   0  0  0  0  0  0  0  0  0  0  0  0
  -10.0977  -26.6652   17.2500 H   0  0  0  0  0  0  0  0  0  0  0  0
  -11.6848  -27.0570   15.6650 H   0  0  0  0  0  0  0  0  0  0  0  0
  -14.6949  -26.6023   18.3719 H   0  0  0  0  0  0  0  0  0  0  0  0
   -7.9959  -26.2957   30.0979 H   0  0  0  0  0  0  0  0  0  0  0  0
   -7.0494  -24.0306   35.3601 H   0  0  0  0  0  0  0  0  0  0  0  0
   -9.2150  -25.2552   38.2242 H   0  0  0  0  0  0  0  0  0  0  0  0
  -11.0691  -26.4027   33.8097 H   0  0  0  0  0  0  0  0  0  0  0  0
  1  2  1  0
  2  3  1  0
  3  4  1  0
  4  5  1  0
  5  6  2  0
  5  7  1  0
  7  8  2  0
  8  9  1  0
  9 10  2  0
 10 11  1  0
 11 12  2  0
  2 13  1  0
 13 14  1  0
 14 15  2  0
 15 16  1  0
 16 17  2  0
 17 18  1  0
 18 19  2  0
 19 20  1  0
 15 21  1  0
 21 22  2  0
 12  7  1  0
 22 13  1  0
 20 16  1  0
  1 23  1  0
  1 24  1  0
  1 25  1  0
  2 26  1  0
  3 27  1  0
  3 28  1  0
  4 29  1  0
  8 30  1  0
  9 31  1  0
 11 32  1  0
 14 33  1  0
 17 34  1  0
 18 35  1  0
 20 36  1  0
M  END
>  <Energy>  (388) 
1955.1542658053877

>  <compound_id>  (388) 
5156

>  <target_id>  (388) 
1

>  <reference_id>  (388) 
112

>  <inspiration_ids>  (388) 
[54, 112]

>  <energy_score>  (388) 
1926.1765614547687

>  <distance_score>  (388) 
5.92142474318458

>  <path>  (388) 
/opt/xchem-fragalysis-2/maxwin/BulkDock/SCRATCH/511018/C5156-P112/C5156-P112.minimised.mol

>  <scratch_subdir>  (388) 
/opt/xchem-fragalysis-2/maxwin/BulkDock/SCRATCH/511018/C5156-P112

>  <fragmenstein_runtime>  (388) 
14.333523750305176

>  <fragmenstein_outcome>  (388) 
too moved

>  <fragmenstein_mode>  (388) 
expansion

>  <fragmenstein_error>  (388) 


$$$$
C5162-P54
     RDKit          3D

 25 26  0  0  0  0  0  0  0  0999 V2000
  -11.5434  -22.0983   24.0293 C   0  0  0  0  0  0  0  0  0  0  0  0
  -11.7703  -21.5737   22.7831 C   0  0  0  0  0  0  0  0  0  0  0  0
  -10.7415  -21.3739   21.8813 C   0  0  0  0  0  0  0  0  0  0  0  0
  -10.9393  -21.0553   20.5161 N   0  0  0  0  0  0  0  0  0  0  0  0
   -9.5208  -21.2458   19.4472 C   0  0  0  0  0  0  0  0  0  0  0  0
   -9.2656  -21.3506   17.4670 C   0  0  0  0  0  0  0  0  0  0  0  0
   -9.7332  -22.6347   16.0206 C   0  0  0  0  0  0  0  0  0  0  0  0
   -9.3556  -23.9051   15.5085 C   0  0  0  0  0  0  0  0  0  0  0  0
   -9.9019  -24.2967   14.2809 C   0  0  0  0  0  0  0  0  0  0  0  0
  -10.4231  -23.2300   13.7443 N   0  0  0  0  0  0  0  0  0  0  0  0
  -10.2530  -22.3295   14.7404 N   0  0  0  0  0  0  0  0  0  0  0  0
   -9.5245  -21.4746   22.3468 N   0  0  0  0  0  0  0  0  0  0  0  0
   -9.3908  -22.1923   23.4607 C   0  0  0  0  0  0  0  0  0  0  0  0
  -10.3555  -22.5880   24.3288 N   0  0  0  0  0  0  0  0  0  0  0  0
  -12.3363  -22.2403   24.7543 H   0  0  0  0  0  0  0  0  0  0  0  0
  -12.7874  -21.4720   22.5604 H   0  0  0  0  0  0  0  0  0  0  0  0
  -11.7635  -21.5685   20.1943 H   0  0  0  0  0  0  0  0  0  0  0  0
   -9.6895  -22.2220   19.8096 H   0  0  0  0  0  0  0  0  0  0  0  0
   -8.8702  -20.5141   19.8323 H   0  0  0  0  0  0  0  0  0  0  0  0
   -8.1957  -21.1437   17.3725 H   0  0  0  0  0  0  0  0  0  0  0  0
   -9.6506  -20.4248   17.0817 H   0  0  0  0  0  0  0  0  0  0  0  0
   -8.6768  -24.5225   16.0032 H   0  0  0  0  0  0  0  0  0  0  0  0
   -9.8342  -25.2262   13.7345 H   0  0  0  0  0  0  0  0  0  0  0  0
  -10.6816  -21.4530   14.5804 H   0  0  0  0  0  0  0  0  0  0  0  0
   -8.3792  -22.5289   23.6579 H   0  0  0  0  0  0  0  0  0  0  0  0
  1  2  2  0
  2  3  1  0
  3  4  1  0
  4  5  1  0
  5  6  1  0
  6  7  1  0
  7  8  2  0
  8  9  1  0
  9 10  2  0
 10 11  1  0
  3 12  2  0
 12 13  1  0
 13 14  2  0
 14  1  1  0
 11  7  1  0
  1 15  1  0
  2 16  1  0
  4 17  1  0
  5 18  1  0
  5 19  1  0
  6 20  1  0
  6 21  1  0
  8 22  1  0
  9 23  1  0
 11 24  1  0
 13 25  1  0
M  END
>  <Energy>  (389) 
194.73390727534726

>  <compound_id>  (389) 
5162

>  <target_id>  (389) 
1

>  <reference_id>  (389) 
54

>  <inspiration_ids>  (389) 
[54, 112]

>  <energy_score>  (389) 
197.6119883740501

>  <distance_score>  (389) 
5.710866154433998

>  <path>  (389) 
/opt/xchem-fragalysis-2/maxwin/BulkDock/SCRATCH/511018/C5162-P54/C5162-P54.minimised.mol

>  <scratch_subdir>  (389) 
/opt/xchem-fragalysis-2/maxwin/BulkDock/SCRATCH/511018/C5162-P54

>  <fragmenstein_runtime>  (389) 
4.8038623332977295

>  <fragmenstein_outcome>  (389) 
too moved

>  <fragmenstein_mode>  (389) 
expansion

>  <fragmenstein_error>  (389) 


$$$$
C5162-P112
     RDKit          3D

 25 26  0  0  0  0  0  0  0  0999 V2000
  -12.8225  -22.3939   22.6779 C   0  0  0  0  0  0  0  0  0  0  0  0
  -12.0279  -22.3104   21.5186 C   0  0  0  0  0  0  0  0  0  0  0  0
  -10.8904  -21.5860   21.5536 C   0  0  0  0  0  0  0  0  0  0  0  0
   -9.8456  -21.6236   20.6334 N   0  0  0  0  0  0  0  0  0  0  0  0
   -9.1778  -20.9737   19.1722 C   0  0  0  0  0  0  0  0  0  0  0  0
   -9.0184  -20.9318   17.4001 C   0  0  0  0  0  0  0  0  0  0  0  0
   -9.4291  -21.9382   15.7977 C   0  0  0  0  0  0  0  0  0  0  0  0
   -9.7523  -21.6703   14.4210 C   0  0  0  0  0  0  0  0  0  0  0  0
   -9.8818  -22.8513   13.6581 C   0  0  0  0  0  0  0  0  0  0  0  0
   -9.6505  -23.8715   14.4567 N   0  0  0  0  0  0  0  0  0  0  0  0
   -9.1149  -23.2296   15.5163 N   0  0  0  0  0  0  0  0  0  0  0  0
  -10.6461  -21.0119   22.7410 N   0  0  0  0  0  0  0  0  0  0  0  0
  -11.5257  -21.1307   23.7547 C   0  0  0  0  0  0  0  0  0  0  0  0
  -12.6020  -21.8505   23.8329 N   0  0  0  0  0  0  0  0  0  0  0  0
  -13.7290  -22.9632   22.7330 H   0  0  0  0  0  0  0  0  0  0  0  0
  -12.3357  -22.8641   20.6604 H   0  0  0  0  0  0  0  0  0  0  0  0
   -9.2462  -21.0506   21.2496 H   0  0  0  0  0  0  0  0  0  0  0  0
   -9.6085  -20.0486   19.2487 H   0  0  0  0  0  0  0  0  0  0  0  0
   -9.6477  -21.8608   18.9074 H   0  0  0  0  0  0  0  0  0  0  0  0
   -7.9210  -20.7678   17.4569 H   0  0  0  0  0  0  0  0  0  0  0  0
   -9.4452  -19.9666   17.2040 H   0  0  0  0  0  0  0  0  0  0  0  0
  -10.1748  -20.7473   14.0498 H   0  0  0  0  0  0  0  0  0  0  0  0
  -10.2377  -22.9922   12.6480 H   0  0  0  0  0  0  0  0  0  0  0  0
   -8.4997  -23.7032   16.1379 H   0  0  0  0  0  0  0  0  0  0  0  0
  -11.3641  -20.5883   24.6439 H   0  0  0  0  0  0  0  0  0  0  0  0
  1  2  2  0
  2  3  1  0
  3  4  1  0
  4  5  1  0
  5  6  1  0
  6  7  1  0
  7  8  2  0
  8  9  1  0
  9 10  2  0
 10 11  1  0
  3 12  2  0
 12 13  1  0
 13 14  2  0
 14  1  1  0
 11  7  1  0
  1 15  1  0
  2 16  1  0
  4 17  1  0
  5 18  1  0
  5 19  1  0
  6 20  1  0
  6 21  1  0
  8 22  1  0
  9 23  1  0
 11 24  1  0
 13 25  1  0
M  END
>  <Energy>  (390) 
223.49915088615347

>  <compound_id>  (390) 
5162

>  <target_id>  (390) 
1

>  <reference_id>  (390) 
112

>  <inspiration_ids>  (390) 
[54, 112]

>  <energy_score>  (390) 
226.37723198485781

>  <distance_score>  (390) 
6.1220999288034

>  <path>  (390) 
/opt/xchem-fragalysis-2/maxwin/BulkDock/SCRATCH/511018/C5162-P112/C5162-P112.minimised.mol

>  <scratch_subdir>  (390) 
/opt/xchem-fragalysis-2/maxwin/BulkDock/SCRATCH/511018/C5162-P112

>  <fragmenstein_runtime>  (390) 
4.831343173980713

>  <fragmenstein_outcome>  (390) 
too moved

>  <fragmenstein_mode>  (390) 
expansion

>  <fragmenstein_error>  (390) 


$$$$
C5163-P54
     RDKit          3D

 27 28  0  0  0  0  0  0  0  0999 V2000
   -8.1268  -28.6308   26.0939 N   0  0  0  0  0  0  0  0  0  0  0  0
   -9.2279  -27.9505   25.6186 C   0  0  0  0  0  0  0  0  0  0  0  0
  -10.1015  -27.6224   26.5447 N   0  0  0  0  0  0  0  0  0  0  0  0
  -11.2524  -27.3104   26.0320 C   0  0  0  0  0  0  0  0  0  0  0  0
  -11.4463  -27.3866   24.6414 C   0  0  0  0  0  0  0  0  0  0  0  0
  -10.4247  -27.2515   23.3638 C   0  0  0  0  0  0  0  0  0  0  0  0
  -10.2637  -27.6433   21.4688 N   0  0  0  0  0  0  0  0  0  0  0  0
  -11.2399  -28.0203   19.6676 C   0  0  0  0  0  0  0  0  0  0  0  0
  -10.9387  -27.5111   18.1696 C   0  0  0  0  0  0  0  0  0  0  0  0
  -11.7472  -28.2156   17.1081 C   0  0  0  0  0  0  0  0  0  0  0  0
  -11.5298  -29.3768   16.4010 C   0  0  0  0  0  0  0  0  0  0  0  0
  -12.5860  -29.4331   15.4731 C   0  0  0  0  0  0  0  0  0  0  0  0
  -13.4176  -28.3959   15.5846 N   0  0  0  0  0  0  0  0  0  0  0  0
  -12.8656  -27.6487   16.5495 N   0  0  0  0  0  0  0  0  0  0  0  0
   -9.2905  -27.6276   24.2088 N   0  0  0  0  0  0  0  0  0  0  0  0
   -7.6701  -29.1635   25.3642 H   0  0  0  0  0  0  0  0  0  0  0  0
   -8.2964  -29.0748   26.9836 H   0  0  0  0  0  0  0  0  0  0  0  0
  -12.0821  -27.2455   26.7299 H   0  0  0  0  0  0  0  0  0  0  0  0
  -12.4750  -27.8014   24.6159 H   0  0  0  0  0  0  0  0  0  0  0  0
   -9.9359  -26.6784   21.3231 H   0  0  0  0  0  0  0  0  0  0  0  0
  -12.3499  -27.7857   19.6113 H   0  0  0  0  0  0  0  0  0  0  0  0
  -11.2111  -29.1510   19.5066 H   0  0  0  0  0  0  0  0  0  0  0  0
  -11.2838  -26.5104   18.0780 H   0  0  0  0  0  0  0  0  0  0  0  0
   -9.9282  -27.5259   17.7889 H   0  0  0  0  0  0  0  0  0  0  0  0
  -10.7108  -30.0735   16.5120 H   0  0  0  0  0  0  0  0  0  0  0  0
  -12.7830  -30.1868   14.7210 H   0  0  0  0  0  0  0  0  0  0  0  0
  -13.2983  -26.7573   16.7701 H   0  0  0  0  0  0  0  0  0  0  0  0
  1  2  1  0
  2  3  2  0
  3  4  1  0
  4  5  2  0
  5  6  1  0
  6  7  1  0
  7  8  1  0
  8  9  1  0
  9 10  1  0
 10 11  2  0
 11 12  1  0
 12 13  2  0
 13 14  1  0
  6 15  2  0
 15  2  1  0
 14 10  1  0
  1 16  1  0
  1 17  1  0
  4 18  1  0
  5 19  1  0
  7 20  1  0
  8 21  1  0
  8 22  1  0
  9 23  1  0
  9 24  1  0
 11 25  1  0
 12 26  1  0
 14 27  1  0
M  END
>  <Energy>  (391) 
297.26475314225416

>  <compound_id>  (391) 
5163

>  <target_id>  (391) 
1

>  <reference_id>  (391) 
54

>  <inspiration_ids>  (391) 
[54, 112]

>  <energy_score>  (391) 
383.30994351525953

>  <distance_score>  (391) 
6.262254539451391

>  <path>  (391) 
/opt/xchem-fragalysis-2/maxwin/BulkDock/SCRATCH/511018/C5163-P54/C5163-P54.minimised.mol

>  <scratch_subdir>  (391) 
/opt/xchem-fragalysis-2/maxwin/BulkDock/SCRATCH/511018/C5163-P54

>  <fragmenstein_runtime>  (391) 
5.931326389312744

>  <fragmenstein_outcome>  (391) 
too moved

>  <fragmenstein_mode>  (391) 
expansion

>  <fragmenstein_error>  (391) 


$$$$
C5163-P112
     RDKit          3D

 27 28  0  0  0  0  0  0  0  0999 V2000
  -13.3565  -27.7056   26.0584 N   0  0  0  0  0  0  0  0  0  0  0  0
  -14.4611  -27.3569   25.2921 C   0  0  0  0  0  0  0  0  0  0  0  0
  -15.0732  -26.2350   25.6455 N   0  0  0  0  0  0  0  0  0  0  0  0
  -16.0812  -25.8551   24.8381 C   0  0  0  0  0  0  0  0  0  0  0  0
  -16.4528  -26.5283   23.6879 C   0  0  0  0  0  0  0  0  0  0  0  0
  -15.7329  -27.6508   23.3546 C   0  0  0  0  0  0  0  0  0  0  0  0
  -15.9889  -28.3923   22.1916 N   0  0  0  0  0  0  0  0  0  0  0  0
  -16.1852  -27.8614   20.7939 C   0  0  0  0  0  0  0  0  0  0  0  0
  -14.8995  -27.8814   19.9306 C   0  0  0  0  0  0  0  0  0  0  0  0
  -14.9104  -27.2686   18.5645 C   0  0  0  0  0  0  0  0  0  0  0  0
  -13.8766  -26.6576   17.8765 C   0  0  0  0  0  0  0  0  0  0  0  0
  -14.4228  -26.2814   16.6402 C   0  0  0  0  0  0  0  0  0  0  0  0
  -15.7036  -26.6394   16.5338 N   0  0  0  0  0  0  0  0  0  0  0  0
  -15.9680  -27.2568   17.6976 N   0  0  0  0  0  0  0  0  0  0  0  0
  -14.7692  -28.0972   24.2027 N   0  0  0  0  0  0  0  0  0  0  0  0
  -13.4326  -28.6789   26.3442 H   0  0  0  0  0  0  0  0  0  0  0  0
  -13.3093  -27.1006   26.8695 H   0  0  0  0  0  0  0  0  0  0  0  0
  -16.6015  -24.9485   25.1392 H   0  0  0  0  0  0  0  0  0  0  0  0
  -17.2716  -26.1712   23.0780 H   0  0  0  0  0  0  0  0  0  0  0  0
  -15.4336  -29.2420   22.2146 H   0  0  0  0  0  0  0  0  0  0  0  0
  -16.9107  -28.5329   20.3177 H   0  0  0  0  0  0  0  0  0  0  0  0
  -16.6754  -26.8844   20.8052 H   0  0  0  0  0  0  0  0  0  0  0  0
  -14.1459  -27.3398   20.4912 H   0  0  0  0  0  0  0  0  0  0  0  0
  -14.5458  -28.9163   19.8437 H   0  0  0  0  0  0  0  0  0  0  0  0
  -12.8668  -26.5040   18.2313 H   0  0  0  0  0  0  0  0  0  0  0  0
  -13.9458  -25.7638   15.8173 H   0  0  0  0  0  0  0  0  0  0  0  0
  -16.8977  -27.6430   17.8237 H   0  0  0  0  0  0  0  0  0  0  0  0
  1  2  1  0
  2  3  2  0
  3  4  1  0
  4  5  2  0
  5  6  1  0
  6  7  1  0
  7  8  1  0
  8  9  1  0
  9 10  1  0
 10 11  2  0
 11 12  1  0
 12 13  2  0
 13 14  1  0
  6 15  2  0
 15  2  1  0
 14 10  1  0
  1 16  1  0
  1 17  1  0
  4 18  1  0
  5 19  1  0
  7 20  1  0
  8 21  1  0
  8 22  1  0
  9 23  1  0
  9 24  1  0
 11 25  1  0
 12 26  1  0
 14 27  1  0
M  END
>  <Energy>  (392) 
-104.52481084076294

>  <compound_id>  (392) 
5163

>  <target_id>  (392) 
1

>  <reference_id>  (392) 
112

>  <inspiration_ids>  (392) 
[54, 112]

>  <energy_score>  (392) 
-18.47962046775858

>  <distance_score>  (392) 
7.560212793281724

>  <path>  (392) 
/opt/xchem-fragalysis-2/maxwin/BulkDock/SCRATCH/511018/C5163-P112/C5163-P112.minimised.mol

>  <scratch_subdir>  (392) 
/opt/xchem-fragalysis-2/maxwin/BulkDock/SCRATCH/511018/C5163-P112

>  <fragmenstein_runtime>  (392) 
8.486793041229248

>  <fragmenstein_outcome>  (392) 
too moved

>  <fragmenstein_mode>  (392) 
expansion

>  <fragmenstein_error>  (392) 


$$$$
C5164-P54
     RDKit          3D

 25 26  0  0  0  0  0  0  0  0999 V2000
  -13.9052  -22.7980   24.5173 I   0  0  0  0  0  0  0  0  0  0  0  0
  -12.4637  -22.1171   23.1117 C   0  0  0  0  0  0  0  0  0  0  0  0
  -11.7389  -21.1507   23.7370 C   0  0  0  0  0  0  0  0  0  0  0  0
  -10.6334  -20.6401   23.2414 N   0  0  0  0  0  0  0  0  0  0  0  0
  -10.2427  -21.1579   22.1050 C   0  0  0  0  0  0  0  0  0  0  0  0
  -11.0124  -21.7763   21.2564 N   0  0  0  0  0  0  0  0  0  0  0  0
  -12.0886  -22.3473   21.7578 C   0  0  0  0  0  0  0  0  0  0  0  0
  -12.6096  -23.0698   20.7118 N   0  0  0  0  0  0  0  0  0  0  0  0
  -12.9048  -24.5819   20.2753 C   0  0  0  0  0  0  0  0  0  0  0  0
  -13.6382  -24.9582   18.7746 C   0  0  0  0  0  0  0  0  0  0  0  0
  -13.5728  -26.3704   18.2173 C   0  0  0  0  0  0  0  0  0  0  0  0
  -12.5442  -27.2526   17.9464 C   0  0  0  0  0  0  0  0  0  0  0  0
  -13.1352  -28.3258   17.2621 C   0  0  0  0  0  0  0  0  0  0  0  0
  -14.4465  -28.1551   17.1049 N   0  0  0  0  0  0  0  0  0  0  0  0
  -14.6806  -26.9539   17.6500 N   0  0  0  0  0  0  0  0  0  0  0  0
  -11.9883  -20.7635   24.7104 H   0  0  0  0  0  0  0  0  0  0  0  0
   -9.2284  -21.0213   21.8182 H   0  0  0  0  0  0  0  0  0  0  0  0
  -12.3568  -22.4841   19.9113 H   0  0  0  0  0  0  0  0  0  0  0  0
  -13.4900  -25.0823   21.0459 H   0  0  0  0  0  0  0  0  0  0  0  0
  -11.9123  -24.8995   20.3400 H   0  0  0  0  0  0  0  0  0  0  0  0
  -13.3163  -24.3089   17.9936 H   0  0  0  0  0  0  0  0  0  0  0  0
  -14.6644  -24.6398   18.6512 H   0  0  0  0  0  0  0  0  0  0  0  0
  -11.4952  -27.1352   18.1704 H   0  0  0  0  0  0  0  0  0  0  0  0
  -12.6655  -29.2183   16.8685 H   0  0  0  0  0  0  0  0  0  0  0  0
  -15.6231  -26.5822   17.5882 H   0  0  0  0  0  0  0  0  0  0  0  0
  1  2  1  0
  2  3  2  0
  3  4  1  0
  4  5  2  0
  5  6  1  0
  6  7  2  0
  7  8  1  0
  8  9  1  0
  9 10  1  0
 10 11  1  0
 11 12  2  0
 12 13  1  0
 13 14  2  0
 14 15  1  0
  7  2  1  0
 15 11  1  0
  3 16  1  0
  5 17  1  0
  8 18  1  0
  9 19  1  0
  9 20  1  0
 10 21  1  0
 10 22  1  0
 12 23  1  0
 13 24  1  0
 15 25  1  0
M  END
>  <Energy>  (393) 
83.056487042654908

>  <compound_id>  (393) 
5164

>  <target_id>  (393) 
1

>  <reference_id>  (393) 
54

>  <inspiration_ids>  (393) 
[54, 112]

>  <energy_score>  (393) 
57.68735659510571

>  <distance_score>  (393) 
6.6597272268942245

>  <path>  (393) 
/opt/xchem-fragalysis-2/maxwin/BulkDock/SCRATCH/511018/C5164-P54/C5164-P54.minimised.mol

>  <scratch_subdir>  (393) 
/opt/xchem-fragalysis-2/maxwin/BulkDock/SCRATCH/511018/C5164-P54

>  <fragmenstein_runtime>  (393) 
5.174969434738159

>  <fragmenstein_outcome>  (393) 
too moved

>  <fragmenstein_mode>  (393) 
expansion

>  <fragmenstein_error>  (393) 


$$$$
C5164-P112
     RDKit          3D

 25 26  0  0  0  0  0  0  0  0999 V2000
  -13.0878  -22.4063   23.2268 I   0  0  0  0  0  0  0  0  0  0  0  0
  -11.5521  -21.2500   21.3969 C   0  0  0  0  0  0  0  0  0  0  0  0
  -11.3359  -20.7449   22.6707 C   0  0  0  0  0  0  0  0  0  0  0  0
  -10.4800  -21.2552   23.4679 N   0  0  0  0  0  0  0  0  0  0  0  0
   -9.5641  -21.9000   22.8527 C   0  0  0  0  0  0  0  0  0  0  0  0
   -9.4035  -21.8853   21.5620 N   0  0  0  0  0  0  0  0  0  0  0  0
  -10.3016  -21.6184   20.7124 C   0  0  0  0  0  0  0  0  0  0  0  0
   -9.3995  -20.8392   19.5921 N   0  0  0  0  0  0  0  0  0  0  0  0
   -8.9029  -20.9273   17.7760 C   0  0  0  0  0  0  0  0  0  0  0  0
   -9.4920  -21.7808   16.0626 C   0  0  0  0  0  0  0  0  0  0  0  0
   -9.6270  -23.0009   14.8223 C   0  0  0  0  0  0  0  0  0  0  0  0
   -9.8693  -24.3688   14.6490 C   0  0  0  0  0  0  0  0  0  0  0  0
  -10.0143  -24.5960   13.2643 C   0  0  0  0  0  0  0  0  0  0  0  0
   -9.8913  -23.4773   12.5633 N   0  0  0  0  0  0  0  0  0  0  0  0
   -9.7028  -22.5408   13.5084 N   0  0  0  0  0  0  0  0  0  0  0  0
  -12.0567  -20.2737   23.2957 H   0  0  0  0  0  0  0  0  0  0  0  0
   -8.8294  -22.4663   23.4034 H   0  0  0  0  0  0  0  0  0  0  0  0
   -8.8244  -20.2260   20.1751 H   0  0  0  0  0  0  0  0  0  0  0  0
   -9.2338  -19.9076   17.6476 H   0  0  0  0  0  0  0  0  0  0  0  0
   -9.4841  -21.7164   18.0353 H   0  0  0  0  0  0  0  0  0  0  0  0
   -9.7567  -20.9180   15.4465 H   0  0  0  0  0  0  0  0  0  0  0  0
   -8.5057  -22.1904   15.7414 H   0  0  0  0  0  0  0  0  0  0  0  0
   -9.9461  -25.1736   15.3580 H   0  0  0  0  0  0  0  0  0  0  0  0
  -10.1956  -25.5317   12.7514 H   0  0  0  0  0  0  0  0  0  0  0  0
   -9.7099  -21.5800   13.2008 H   0  0  0  0  0  0  0  0  0  0  0  0
  1  2  1  0
  2  3  2  0
  3  4  1  0
  4  5  2  0
  5  6  1  0
  6  7  2  0
  7  8  1  0
  8  9  1  0
  9 10  1  0
 10 11  1  0
 11 12  2  0
 12 13  1  0
 13 14  2  0
 14 15  1  0
  7  2  1  0
 15 11  1  0
  3 16  1  0
  5 17  1  0
  8 18  1  0
  9 19  1  0
  9 20  1  0
 10 21  1  0
 10 22  1  0
 12 23  1  0
 13 24  1  0
 15 25  1  0
M  END
>  <Energy>  (394) 
502.72151245326501

>  <compound_id>  (394) 
5164

>  <target_id>  (394) 
1

>  <reference_id>  (394) 
112

>  <inspiration_ids>  (394) 
[54, 112]

>  <energy_score>  (394) 
477.35238200571473

>  <distance_score>  (394) 
5.8088314274523665

>  <path>  (394) 
/opt/xchem-fragalysis-2/maxwin/BulkDock/SCRATCH/511018/C5164-P112/C5164-P112.minimised.mol

>  <scratch_subdir>  (394) 
/opt/xchem-fragalysis-2/maxwin/BulkDock/SCRATCH/511018/C5164-P112

>  <fragmenstein_runtime>  (394) 
5.285611152648926

>  <fragmenstein_outcome>  (394) 
too moved

>  <fragmenstein_mode>  (394) 
expansion

>  <fragmenstein_error>  (394) 


$$$$
C5165-P54
     RDKit          3D

 28 29  0  0  0  0  0  0  0  0999 V2000
  -13.4380  -22.7561   24.2916 C   0  0  0  0  0  0  0  0  0  0  0  0
  -12.5876  -21.8977   23.4268 C   0  0  0  0  0  0  0  0  0  0  0  0
  -11.7092  -22.2137   22.3740 C   0  0  0  0  0  0  0  0  0  0  0  0
  -10.8511  -21.3553   21.6562 C   0  0  0  0  0  0  0  0  0  0  0  0
  -10.2887  -21.7645   20.4100 N   0  0  0  0  0  0  0  0  0  0  0  0
   -9.3350  -21.1120   19.0268 C   0  0  0  0  0  0  0  0  0  0  0  0
   -9.2819  -21.5863   17.1310 C   0  0  0  0  0  0  0  0  0  0  0  0
   -9.6235  -23.0014   15.7495 C   0  0  0  0  0  0  0  0  0  0  0  0
  -10.0358  -24.3828   15.3555 C   0  0  0  0  0  0  0  0  0  0  0  0
  -10.2748  -24.5033   13.9612 C   0  0  0  0  0  0  0  0  0  0  0  0
   -9.7179  -23.4683   13.3986 N   0  0  0  0  0  0  0  0  0  0  0  0
   -8.9900  -23.0452   14.4509 N   0  0  0  0  0  0  0  0  0  0  0  0
  -10.5230  -20.3712   22.4275 N   0  0  0  0  0  0  0  0  0  0  0  0
  -11.2682  -20.1872   23.5308 C   0  0  0  0  0  0  0  0  0  0  0  0
  -12.3113  -20.8061   24.0301 N   0  0  0  0  0  0  0  0  0  0  0  0
  -12.9303  -22.9551   25.2430 H   0  0  0  0  0  0  0  0  0  0  0  0
  -14.3819  -22.2510   24.5226 H   0  0  0  0  0  0  0  0  0  0  0  0
  -13.6733  -23.7073   23.8485 H   0  0  0  0  0  0  0  0  0  0  0  0
  -10.9508  -22.6982   23.0291 H   0  0  0  0  0  0  0  0  0  0  0  0
  -11.1819  -22.1081   20.0730 H   0  0  0  0  0  0  0  0  0  0  0  0
   -9.9297  -20.2917   18.7584 H   0  0  0  0  0  0  0  0  0  0  0  0
   -8.7454  -20.2875   19.4182 H   0  0  0  0  0  0  0  0  0  0  0  0
   -9.7386  -20.7130   16.7179 H   0  0  0  0  0  0  0  0  0  0  0  0
   -8.2300  -21.2580   17.0651 H   0  0  0  0  0  0  0  0  0  0  0  0
  -10.4314  -25.2452   15.8686 H   0  0  0  0  0  0  0  0  0  0  0  0
  -10.7741  -25.2708   13.3881 H   0  0  0  0  0  0  0  0  0  0  0  0
   -8.0383  -22.7498   14.2540 H   0  0  0  0  0  0  0  0  0  0  0  0
  -10.9829  -19.4334   24.1755 H   0  0  0  0  0  0  0  0  0  0  0  0
  1  2  1  0
  2  3  2  0
  3  4  1  0
  4  5  1  0
  5  6  1  0
  6  7  1  0
  7  8  1  0
  8  9  2  0
  9 10  1  0
 10 11  2  0
 11 12  1  0
  4 13  2  0
 13 14  1  0
 14 15  2  0
 15  2  1  0
 12  8  1  0
  1 16  1  0
  1 17  1  0
  1 18  1  0
  3 19  1  0
  5 20  1  0
  6 21  1  0
  6 22  1  0
  7 23  1  0
  7 24  1  0
  9 25  1  0
 10 26  1  0
 12 27  1  0
 14 28  1  0
M  END
>  <Energy>  (395) 
333.24064287186371

>  <compound_id>  (395) 
5165

>  <target_id>  (395) 
1

>  <reference_id>  (395) 
54

>  <inspiration_ids>  (395) 
[54, 112]

>  <energy_score>  (395) 
330.42576126856636

>  <distance_score>  (395) 
5.838377597929742

>  <path>  (395) 
/opt/xchem-fragalysis-2/maxwin/BulkDock/SCRATCH/511018/C5165-P54/C5165-P54.minimised.mol

>  <scratch_subdir>  (395) 
/opt/xchem-fragalysis-2/maxwin/BulkDock/SCRATCH/511018/C5165-P54

>  <fragmenstein_runtime>  (395) 
4.422594785690308

>  <fragmenstein_outcome>  (395) 
too moved

>  <fragmenstein_mode>  (395) 
expansion

>  <fragmenstein_error>  (395) 


$$$$
C5165-P112
     RDKit          3D

 28 29  0  0  0  0  0  0  0  0999 V2000
  -13.1342  -22.2877   23.2550 C   0  0  0  0  0  0  0  0  0  0  0  0
  -11.8944  -21.9118   22.5062 C   0  0  0  0  0  0  0  0  0  0  0  0
  -11.5065  -21.8779   21.1090 C   0  0  0  0  0  0  0  0  0  0  0  0
  -10.1948  -21.5516   20.7076 C   0  0  0  0  0  0  0  0  0  0  0  0
   -9.4039  -21.1782   19.5614 N   0  0  0  0  0  0  0  0  0  0  0  0
   -9.0218  -20.9913   17.7403 C   0  0  0  0  0  0  0  0  0  0  0  0
   -9.4565  -21.9184   16.0387 C   0  0  0  0  0  0  0  0  0  0  0  0
   -9.6525  -23.1554   14.8729 C   0  0  0  0  0  0  0  0  0  0  0  0
   -9.9038  -24.5223   14.7083 C   0  0  0  0  0  0  0  0  0  0  0  0
  -10.0683  -24.7527   13.3253 C   0  0  0  0  0  0  0  0  0  0  0  0
   -9.9415  -23.6392   12.6158 N   0  0  0  0  0  0  0  0  0  0  0  0
   -9.7176  -22.7035   13.5518 N   0  0  0  0  0  0  0  0  0  0  0  0
   -9.4092  -21.5488   21.7314 N   0  0  0  0  0  0  0  0  0  0  0  0
   -9.8041  -21.8401   22.9352 C   0  0  0  0  0  0  0  0  0  0  0  0
  -10.9968  -21.7790   23.4269 N   0  0  0  0  0  0  0  0  0  0  0  0
  -13.7659  -22.9585   22.7233 H   0  0  0  0  0  0  0  0  0  0  0  0
  -12.8831  -22.8118   24.1844 H   0  0  0  0  0  0  0  0  0  0  0  0
  -13.7286  -21.4926   23.6729 H   0  0  0  0  0  0  0  0  0  0  0  0
  -12.2412  -22.1268   20.3730 H   0  0  0  0  0  0  0  0  0  0  0  0
   -8.8708  -20.4518   20.0556 H   0  0  0  0  0  0  0  0  0  0  0  0
   -7.9436  -20.7617   17.7454 H   0  0  0  0  0  0  0  0  0  0  0  0
   -9.3624  -19.9736   17.6009 H   0  0  0  0  0  0  0  0  0  0  0  0
   -9.7524  -21.0714   15.4110 H   0  0  0  0  0  0  0  0  0  0  0  0
   -8.4413  -22.2244   15.6810 H   0  0  0  0  0  0  0  0  0  0  0  0
   -9.9722  -25.3254   15.4226 H   0  0  0  0  0  0  0  0  0  0  0  0
  -10.2652  -25.6888   12.8191 H   0  0  0  0  0  0  0  0  0  0  0  0
   -9.6632  -21.7436   13.2406 H   0  0  0  0  0  0  0  0  0  0  0  0
   -9.0203  -22.3332   23.4848 H   0  0  0  0  0  0  0  0  0  0  0  0
  1  2  1  0
  2  3  2  0
  3  4  1  0
  4  5  1  0
  5  6  1  0
  6  7  1  0
  7  8  1  0
  8  9  2  0
  9 10  1  0
 10 11  2  0
 11 12  1  0
  4 13  2  0
 13 14  1  0
 14 15  2  0
 15  2  1  0
 12  8  1  0
  1 16  1  0
  1 17  1  0
  1 18  1  0
  3 19  1  0
  5 20  1  0
  6 21  1  0
  6 22  1  0
  7 23  1  0
  7 24  1  0
  9 25  1  0
 10 26  1  0
 12 27  1  0
 14 28  1  0
M  END
>  <Energy>  (396) 
269.84735009800789

>  <compound_id>  (396) 
5165

>  <target_id>  (396) 
1

>  <reference_id>  (396) 
112

>  <inspiration_ids>  (396) 
[54, 112]

>  <energy_score>  (396) 
267.03246849470986

>  <distance_score>  (396) 
5.8871959698499134

>  <path>  (396) 
/opt/xchem-fragalysis-2/maxwin/BulkDock/SCRATCH/511018/C5165-P112/C5165-P112.minimised.mol

>  <scratch_subdir>  (396) 
/opt/xchem-fragalysis-2/maxwin/BulkDock/SCRATCH/511018/C5165-P112

>  <fragmenstein_runtime>  (396) 
5.5773303508758545

>  <fragmenstein_outcome>  (396) 
too moved

>  <fragmenstein_mode>  (396) 
expansion

>  <fragmenstein_error>  (396) 


$$$$
C5168-P54
     RDKit          3D

 27 28  0  0  0  0  0  0  0  0999 V2000
  -12.2453  -22.2192   25.2071 N   0  0  0  0  0  0  0  0  0  0  0  0
  -11.8528  -21.9731   23.8931 C   0  0  0  0  0  0  0  0  0  0  0  0
  -12.6177  -22.3538   22.8547 C   0  0  0  0  0  0  0  0  0  0  0  0
  -12.0607  -22.3348   21.5605 C   0  0  0  0  0  0  0  0  0  0  0  0
  -12.5858  -23.0334   20.4702 N   0  0  0  0  0  0  0  0  0  0  0  0
  -12.8068  -24.5929   20.2391 C   0  0  0  0  0  0  0  0  0  0  0  0
  -13.5486  -25.3706   18.9303 C   0  0  0  0  0  0  0  0  0  0  0  0
  -13.1219  -26.2423   17.7403 C   0  0  0  0  0  0  0  0  0  0  0  0
  -12.1083  -27.1495   17.5087 C   0  0  0  0  0  0  0  0  0  0  0  0
  -12.3133  -27.6249   16.2031 C   0  0  0  0  0  0  0  0  0  0  0  0
  -13.4137  -27.1129   15.6526 N   0  0  0  0  0  0  0  0  0  0  0  0
  -13.8991  -26.3013   16.6025 N   0  0  0  0  0  0  0  0  0  0  0  0
  -10.9900  -21.6217   21.3073 N   0  0  0  0  0  0  0  0  0  0  0  0
  -10.2745  -21.3552   22.3791 C   0  0  0  0  0  0  0  0  0  0  0  0
  -10.6434  -21.5524   23.6408 N   0  0  0  0  0  0  0  0  0  0  0  0
  -13.0492  -21.6206   25.4302 H   0  0  0  0  0  0  0  0  0  0  0  0
  -11.4961  -21.9096   25.8194 H   0  0  0  0  0  0  0  0  0  0  0  0
  -13.5296  -22.8818   23.0831 H   0  0  0  0  0  0  0  0  0  0  0  0
  -12.4151  -22.4530   19.6553 H   0  0  0  0  0  0  0  0  0  0  0  0
  -11.8095  -24.8669   20.4287 H   0  0  0  0  0  0  0  0  0  0  0  0
  -13.4128  -24.9448   21.0766 H   0  0  0  0  0  0  0  0  0  0  0  0
  -14.3203  -24.7247   18.5251 H   0  0  0  0  0  0  0  0  0  0  0  0
  -13.9137  -26.2632   19.4579 H   0  0  0  0  0  0  0  0  0  0  0  0
  -11.3127  -27.4080   18.1831 H   0  0  0  0  0  0  0  0  0  0  0  0
  -11.7146  -28.3271   15.6368 H   0  0  0  0  0  0  0  0  0  0  0  0
  -14.7546  -25.7944   16.4005 H   0  0  0  0  0  0  0  0  0  0  0  0
   -9.2731  -21.0093   22.2163 H   0  0  0  0  0  0  0  0  0  0  0  0
  1  2  1  0
  2  3  2  0
  3  4  1  0
  4  5  1  0
  5  6  1  0
  6  7  1  0
  7  8  1  0
  8  9  2  0
  9 10  1  0
 10 11  2  0
 11 12  1  0
  4 13  2  0
 13 14  1  0
 14 15  2  0
 15  2  1  0
 12  8  1  0
  1 16  1  0
  1 17  1  0
  3 18  1  0
  5 19  1  0
  6 20  1  0
  6 21  1  0
  7 22  1  0
  7 23  1  0
  9 24  1  0
 10 25  1  0
 12 26  1  0
 14 27  1  0
M  END
>  <Energy>  (397) 
-6.3278453833052151

>  <compound_id>  (397) 
5168

>  <target_id>  (397) 
1

>  <reference_id>  (397) 
54

>  <inspiration_ids>  (397) 
[54, 112]

>  <energy_score>  (397) 
50.33240056441764

>  <distance_score>  (397) 
6.3435959916420614

>  <path>  (397) 
/opt/xchem-fragalysis-2/maxwin/BulkDock/SCRATCH/511018/C5168-P54/C5168-P54.minimised.mol

>  <scratch_subdir>  (397) 
/opt/xchem-fragalysis-2/maxwin/BulkDock/SCRATCH/511018/C5168-P54

>  <fragmenstein_runtime>  (397) 
4.3066675662994385

>  <fragmenstein_outcome>  (397) 
too moved

>  <fragmenstein_mode>  (397) 
expansion

>  <fragmenstein_error>  (397) 


$$$$
C5168-P112
     RDKit          3D

 27 28  0  0  0  0  0  0  0  0999 V2000
  -12.3385  -22.6406   22.2189 N   0  0  0  0  0  0  0  0  0  0  0  0
  -12.3194  -23.1602   20.9181 C   0  0  0  0  0  0  0  0  0  0  0  0
  -12.7897  -24.5277   20.1856 C   0  0  0  0  0  0  0  0  0  0  0  0
  -13.4617  -24.7235   18.9274 C   0  0  0  0  0  0  0  0  0  0  0  0
  -14.0288  -25.8513   18.3726 N   0  0  0  0  0  0  0  0  0  0  0  0
  -13.1078  -26.7579   17.6404 C   0  0  0  0  0  0  0  0  0  0  0  0
  -12.6514  -26.2114   16.2768 C   0  0  0  0  0  0  0  0  0  0  0  0
  -12.0477  -27.2326   15.3837 C   0  0  0  0  0  0  0  0  0  0  0  0
  -12.6170  -28.1443   14.5232 C   0  0  0  0  0  0  0  0  0  0  0  0
  -11.5294  -28.8039   13.9299 C   0  0  0  0  0  0  0  0  0  0  0  0
  -10.3589  -28.3544   14.3801 N   0  0  0  0  0  0  0  0  0  0  0  0
  -10.6914  -27.3773   15.2365 N   0  0  0  0  0  0  0  0  0  0  0  0
  -13.4574  -23.5687   18.2420 N   0  0  0  0  0  0  0  0  0  0  0  0
  -12.7858  -22.2999   19.1089 C   0  0  0  0  0  0  0  0  0  0  0  0
  -12.1584  -22.1025   20.2737 N   0  0  0  0  0  0  0  0  0  0  0  0
  -13.2840  -22.4719   22.5331 H   0  0  0  0  0  0  0  0  0  0  0  0
  -11.8411  -21.7490   22.1320 H   0  0  0  0  0  0  0  0  0  0  0  0
  -13.0290  -25.3752   20.7610 H   0  0  0  0  0  0  0  0  0  0  0  0
  -14.6600  -25.4749   17.6591 H   0  0  0  0  0  0  0  0  0  0  0  0
  -13.6554  -27.6958   17.4873 H   0  0  0  0  0  0  0  0  0  0  0  0
  -12.2467  -27.0084   18.2648 H   0  0  0  0  0  0  0  0  0  0  0  0
  -11.8908  -25.4599   16.4536 H   0  0  0  0  0  0  0  0  0  0  0  0
  -13.4851  -25.7235   15.7581 H   0  0  0  0  0  0  0  0  0  0  0  0
  -13.6697  -28.3071   14.3405 H   0  0  0  0  0  0  0  0  0  0  0  0
  -11.5391  -29.5943   13.1901 H   0  0  0  0  0  0  0  0  0  0  0  0
   -9.9387  -26.8569   15.6820 H   0  0  0  0  0  0  0  0  0  0  0  0
  -12.9901  -21.3789   18.5560 H   0  0  0  0  0  0  0  0  0  0  0  0
  1  2  1  0
  2  3  2  0
  3  4  1  0
  4  5  1  0
  5  6  1  0
  6  7  1  0
  7  8  1  0
  8  9  2  0
  9 10  1  0
 10 11  2  0
 11 12  1  0
  4 13  2  0
 13 14  1  0
 14 15  2  0
 15  2  1  0
 12  8  1  0
  1 16  1  0
  1 17  1  0
  3 18  1  0
  5 19  1  0
  6 20  1  0
  6 21  1  0
  7 22  1  0
  7 23  1  0
  9 24  1  0
 10 25  1  0
 12 26  1  0
 14 27  1  0
M  END
>  <Energy>  (398) 
11.840942813574301

>  <compound_id>  (398) 
5168

>  <target_id>  (398) 
1

>  <reference_id>  (398) 
112

>  <inspiration_ids>  (398) 
[54, 112]

>  <energy_score>  (398) 
68.50118876130074

>  <distance_score>  (398) 
7.538909489127161

>  <path>  (398) 
/opt/xchem-fragalysis-2/maxwin/BulkDock/SCRATCH/511018/C5168-P112/C5168-P112.minimised.mol

>  <scratch_subdir>  (398) 
/opt/xchem-fragalysis-2/maxwin/BulkDock/SCRATCH/511018/C5168-P112

>  <fragmenstein_runtime>  (398) 
7.904330253601074

>  <fragmenstein_outcome>  (398) 
too moved

>  <fragmenstein_mode>  (398) 
expansion

>  <fragmenstein_error>  (398) 


$$$$
C5169-P54
     RDKit          3D

 25 26  0  0  0  0  0  0  0  0999 V2000
  -12.8563  -22.5914   25.0305 Cl  0  0  0  0  0  0  0  0  0  0  0  0
  -11.5593  -22.1161   24.0029 C   0  0  0  0  0  0  0  0  0  0  0  0
  -11.7896  -21.5976   22.7593 C   0  0  0  0  0  0  0  0  0  0  0  0
  -10.7519  -21.3708   21.8810 C   0  0  0  0  0  0  0  0  0  0  0  0
  -10.9408  -21.0576   20.5129 N   0  0  0  0  0  0  0  0  0  0  0  0
   -9.5201  -21.2442   19.4458 C   0  0  0  0  0  0  0  0  0  0  0  0
   -9.2660  -21.3503   17.4657 C   0  0  0  0  0  0  0  0  0  0  0  0
   -9.7336  -22.6349   16.0203 C   0  0  0  0  0  0  0  0  0  0  0  0
   -9.3547  -23.9056   15.5095 C   0  0  0  0  0  0  0  0  0  0  0  0
   -9.9015  -24.3006   14.2833 C   0  0  0  0  0  0  0  0  0  0  0  0
  -10.4266  -23.2360   13.7469 N   0  0  0  0  0  0  0  0  0  0  0  0
  -10.2528  -22.3321   14.7384 N   0  0  0  0  0  0  0  0  0  0  0  0
   -9.5402  -21.4621   22.3610 N   0  0  0  0  0  0  0  0  0  0  0  0
   -9.4097  -22.1873   23.4711 C   0  0  0  0  0  0  0  0  0  0  0  0
  -10.3738  -22.5893   24.3296 N   0  0  0  0  0  0  0  0  0  0  0  0
  -12.7998  -21.5752   22.4925 H   0  0  0  0  0  0  0  0  0  0  0  0
  -11.7608  -21.5756   20.1869 H   0  0  0  0  0  0  0  0  0  0  0  0
   -8.8703  -20.5114   19.8304 H   0  0  0  0  0  0  0  0  0  0  0  0
   -9.6863  -22.2194   19.8116 H   0  0  0  0  0  0  0  0  0  0  0  0
   -9.6514  -20.4247   17.0805 H   0  0  0  0  0  0  0  0  0  0  0  0
   -8.1967  -21.1426   17.3709 H   0  0  0  0  0  0  0  0  0  0  0  0
   -8.6743  -24.5213   16.0041 H   0  0  0  0  0  0  0  0  0  0  0  0
   -9.8325  -25.2305   13.7376 H   0  0  0  0  0  0  0  0  0  0  0  0
  -10.6829  -21.4571   14.5749 H   0  0  0  0  0  0  0  0  0  0  0  0
   -8.3978  -22.5272   23.6652 H   0  0  0  0  0  0  0  0  0  0  0  0
  1  2  1  0
  2  3  2  0
  3  4  1  0
  4  5  1  0
  5  6  1  0
  6  7  1  0
  7  8  1  0
  8  9  2  0
  9 10  1  0
 10 11  2  0
 11 12  1  0
  4 13  2  0
 13 14  1  0
 14 15  2  0
 15  2  1  0
 12  8  1  0
  3 16  1  0
  5 17  1  0
  6 18  1  0
  6 19  1  0
  7 20  1  0
  7 21  1  0
  9 22  1  0
 10 23  1  0
 12 24  1  0
 14 25  1  0
M  END
>  <Energy>  (399) 
173.64279837349105

>  <compound_id>  (399) 
5169

>  <target_id>  (399) 
1

>  <reference_id>  (399) 
54

>  <inspiration_ids>  (399) 
[54, 112]

>  <energy_score>  (399) 
202.72506597254744

>  <distance_score>  (399) 
5.7117635655435945

>  <path>  (399) 
/opt/xchem-fragalysis-2/maxwin/BulkDock/SCRATCH/511018/C5169-P54/C5169-P54.minimised.mol

>  <scratch_subdir>  (399) 
/opt/xchem-fragalysis-2/maxwin/BulkDock/SCRATCH/511018/C5169-P54

>  <fragmenstein_runtime>  (399) 
5.176181316375732

>  <fragmenstein_outcome>  (399) 
too moved

>  <fragmenstein_mode>  (399) 
expansion

>  <fragmenstein_error>  (399) 


$$$$
C5169-P112
     RDKit          3D

 25 26  0  0  0  0  0  0  0  0999 V2000
  -11.7681  -23.2533   26.6417 Cl  0  0  0  0  0  0  0  0  0  0  0  0
  -12.6716  -22.8170   25.2344 C   0  0  0  0  0  0  0  0  0  0  0  0
  -12.2004  -22.3203   23.9949 C   0  0  0  0  0  0  0  0  0  0  0  0
  -13.0369  -22.5318   22.9261 C   0  0  0  0  0  0  0  0  0  0  0  0
  -12.5789  -22.7478   21.5668 N   0  0  0  0  0  0  0  0  0  0  0  0
  -12.4799  -24.1144   20.4413 C   0  0  0  0  0  0  0  0  0  0  0  0
  -13.4437  -25.2446   19.5307 C   0  0  0  0  0  0  0  0  0  0  0  0
  -13.0472  -26.1072   18.3096 C   0  0  0  0  0  0  0  0  0  0  0  0
  -13.2353  -25.9011   16.9480 C   0  0  0  0  0  0  0  0  0  0  0  0
  -12.8059  -27.0813   16.3227 C   0  0  0  0  0  0  0  0  0  0  0  0
  -12.4496  -28.0061   17.2118 N   0  0  0  0  0  0  0  0  0  0  0  0
  -12.6566  -27.4100   18.3950 N   0  0  0  0  0  0  0  0  0  0  0  0
  -14.3250  -22.6848   23.2496 N   0  0  0  0  0  0  0  0  0  0  0  0
  -14.7079  -23.0529   24.4703 C   0  0  0  0  0  0  0  0  0  0  0  0
  -13.8710  -23.3548   25.4131 N   0  0  0  0  0  0  0  0  0  0  0  0
  -11.1795  -22.0633   23.7755 H   0  0  0  0  0  0  0  0  0  0  0  0
  -11.7479  -22.1730   21.3898 H   0  0  0  0  0  0  0  0  0  0  0  0
  -11.4957  -24.5320   20.5891 H   0  0  0  0  0  0  0  0  0  0  0  0
  -12.5848  -23.3565   19.7100 H   0  0  0  0  0  0  0  0  0  0  0  0
  -13.9218  -25.9719   20.1787 H   0  0  0  0  0  0  0  0  0  0  0  0
  -14.1745  -24.6862   18.9666 H   0  0  0  0  0  0  0  0  0  0  0  0
  -13.6408  -25.0177   16.4751 H   0  0  0  0  0  0  0  0  0  0  0  0
  -12.7639  -27.3158   15.2666 H   0  0  0  0  0  0  0  0  0  0  0  0
  -12.4874  -27.9418   19.2403 H   0  0  0  0  0  0  0  0  0  0  0  0
  -15.7658  -23.1770   24.6609 H   0  0  0  0  0  0  0  0  0  0  0  0
  1  2  1  0
  2  3  2  0
  3  4  1  0
  4  5  1  0
  5  6  1  0
  6  7  1  0
  7  8  1  0
  8  9  2  0
  9 10  1  0
 10 11  2  0
 11 12  1  0
  4 13  2  0
 13 14  1  0
 14 15  2  0
 15  2  1  0
 12  8  1  0
  3 16  1  0
  5 17  1  0
  6 18  1  0
  6 19  1  0
  7 20  1  0
  7 21  1  0
  9 22  1  0
 10 23  1  0
 12 24  1  0
 14 25  1  0
M  END
>  <Energy>  (400) 
85.669004698883441

>  <compound_id>  (400) 
5169

>  <target_id>  (400) 
1

>  <reference_id>  (400) 
112

>  <inspiration_ids>  (400) 
[54, 112]

>  <energy_score>  (400) 
114.75127229794526

>  <distance_score>  (400) 
6.327412148599154

>  <path>  (400) 
/opt/xchem-fragalysis-2/maxwin/BulkDock/SCRATCH/511018/C5169-P112/C5169-P112.minimised.mol

>  <scratch_subdir>  (400) 
/opt/xchem-fragalysis-2/maxwin/BulkDock/SCRATCH/511018/C5169-P112

>  <fragmenstein_runtime>  (400) 
5.736626148223877

>  <fragmenstein_outcome>  (400) 
too moved

>  <fragmenstein_mode>  (400) 
expansion

>  <fragmenstein_error>  (400) 


$$$$
C5170-P54
     RDKit          3D

 25 26  0  0  0  0  0  0  0  0999 V2000
   -9.7853  -19.6941   21.0125 Cl  0  0  0  0  0  0  0  0  0  0  0  0
  -10.7485  -20.9245   21.6831 C   0  0  0  0  0  0  0  0  0  0  0  0
  -11.1044  -20.6946   22.9521 N   0  0  0  0  0  0  0  0  0  0  0  0
  -12.0755  -21.4689   23.3771 C   0  0  0  0  0  0  0  0  0  0  0  0
  -12.6408  -22.4178   22.5533 C   0  0  0  0  0  0  0  0  0  0  0  0
  -12.1678  -22.6979   21.2057 C   0  0  0  0  0  0  0  0  0  0  0  0
  -12.3460  -24.0481   20.5688 N   0  0  0  0  0  0  0  0  0  0  0  0
  -13.2807  -24.9653   19.7697 C   0  0  0  0  0  0  0  0  0  0  0  0
  -13.1237  -26.3313   18.8591 C   0  0  0  0  0  0  0  0  0  0  0  0
  -13.5776  -26.3469   17.4134 C   0  0  0  0  0  0  0  0  0  0  0  0
  -12.9774  -26.9539   16.3219 C   0  0  0  0  0  0  0  0  0  0  0  0
  -13.8522  -26.7282   15.2474 C   0  0  0  0  0  0  0  0  0  0  0  0
  -14.9447  -26.0632   15.6247 N   0  0  0  0  0  0  0  0  0  0  0  0
  -14.7498  -25.8364   16.9329 N   0  0  0  0  0  0  0  0  0  0  0  0
  -11.1557  -21.9073   20.8467 N   0  0  0  0  0  0  0  0  0  0  0  0
  -12.4110  -21.3199   24.3938 H   0  0  0  0  0  0  0  0  0  0  0  0
  -13.4306  -23.0120   23.0041 H   0  0  0  0  0  0  0  0  0  0  0  0
  -11.4952  -24.5896   20.7585 H   0  0  0  0  0  0  0  0  0  0  0  0
  -13.7576  -24.3374   19.0489 H   0  0  0  0  0  0  0  0  0  0  0  0
  -13.7453  -25.3709   20.6582 H   0  0  0  0  0  0  0  0  0  0  0  0
  -13.7666  -27.0891   19.3104 H   0  0  0  0  0  0  0  0  0  0  0  0
  -12.1255  -26.7729   18.8134 H   0  0  0  0  0  0  0  0  0  0  0  0
  -12.0306  -27.4765   16.3059 H   0  0  0  0  0  0  0  0  0  0  0  0
  -13.7444  -27.0256   14.2122 H   0  0  0  0  0  0  0  0  0  0  0  0
  -15.4810  -25.3449   17.4305 H   0  0  0  0  0  0  0  0  0  0  0  0
  1  2  1  0
  2  3  2  0
  3  4  1  0
  4  5  2  0
  5  6  1  0
  6  7  1  0
  7  8  1  0
  8  9  1  0
  9 10  1  0
 10 11  2  0
 11 12  1  0
 12 13  2  0
 13 14  1  0
  6 15  2  0
 15  2  1  0
 14 10  1  0
  4 16  1  0
  5 17  1  0
  7 18  1  0
  8 19  1  0
  8 20  1  0
  9 21  1  0
  9 22  1  0
 11 23  1  0
 12 24  1  0
 14 25  1  0
M  END
>  <Energy>  (401) 
54.627522326565007

>  <compound_id>  (401) 
5170

>  <target_id>  (401) 
1

>  <reference_id>  (401) 
54

>  <inspiration_ids>  (401) 
[54, 112]

>  <energy_score>  (401) 
76.5291080659222

>  <distance_score>  (401) 
6.76050277345434

>  <path>  (401) 
/opt/xchem-fragalysis-2/maxwin/BulkDock/SCRATCH/511018/C5170-P54/C5170-P54.minimised.mol

>  <scratch_subdir>  (401) 
/opt/xchem-fragalysis-2/maxwin/BulkDock/SCRATCH/511018/C5170-P54

>  <fragmenstein_runtime>  (401) 
4.375453233718872

>  <fragmenstein_outcome>  (401) 
too moved

>  <fragmenstein_mode>  (401) 
expansion

>  <fragmenstein_error>  (401) 


$$$$
C5170-P112
     RDKit          3D

 25 26  0  0  0  0  0  0  0  0999 V2000
   -4.5802  -19.8866   22.9215 Cl  0  0  0  0  0  0  0  0  0  0  0  0
   -5.5830  -18.5137   22.6937 C   0  0  0  0  0  0  0  0  0  0  0  0
   -5.5174  -17.6209   23.6909 N   0  0  0  0  0  0  0  0  0  0  0  0
   -6.2398  -16.5174   23.4779 C   0  0  0  0  0  0  0  0  0  0  0  0
   -7.0281  -16.3319   22.3628 C   0  0  0  0  0  0  0  0  0  0  0  0
   -7.0424  -17.3292   21.3983 C   0  0  0  0  0  0  0  0  0  0  0  0
   -7.7551  -17.0376   20.2299 N   0  0  0  0  0  0  0  0  0  0  0  0
   -7.7040  -17.8596   19.0100 C   0  0  0  0  0  0  0  0  0  0  0  0
   -8.1066  -16.9616   17.8135 C   0  0  0  0  0  0  0  0  0  0  0  0
   -9.5728  -16.8692   17.5138 C   0  0  0  0  0  0  0  0  0  0  0  0
  -10.7020  -16.7728   18.2981 C   0  0  0  0  0  0  0  0  0  0  0  0
  -11.7740  -16.6484   17.3887 C   0  0  0  0  0  0  0  0  0  0  0  0
  -11.3651  -16.6659   16.1201 N   0  0  0  0  0  0  0  0  0  0  0  0
  -10.0345  -16.8011   16.2217 N   0  0  0  0  0  0  0  0  0  0  0  0
   -6.2928  -18.4305   21.5485 N   0  0  0  0  0  0  0  0  0  0  0  0
   -6.1879  -15.7610   24.2546 H   0  0  0  0  0  0  0  0  0  0  0  0
   -7.5924  -15.4166   22.2400 H   0  0  0  0  0  0  0  0  0  0  0  0
   -8.6598  -16.6193   20.4039 H   0  0  0  0  0  0  0  0  0  0  0  0
   -6.6728  -18.1957   18.8553 H   0  0  0  0  0  0  0  0  0  0  0  0
   -8.3491  -18.7383   19.0889 H   0  0  0  0  0  0  0  0  0  0  0  0
   -7.5727  -17.2807   16.9192 H   0  0  0  0  0  0  0  0  0  0  0  0
   -7.7466  -15.9387   17.9946 H   0  0  0  0  0  0  0  0  0  0  0  0
  -10.7681  -16.7951   19.3747 H   0  0  0  0  0  0  0  0  0  0  0  0
  -12.8320  -16.5620   17.6015 H   0  0  0  0  0  0  0  0  0  0  0  0
   -9.4912  -16.8051   15.3666 H   0  0  0  0  0  0  0  0  0  0  0  0
  1  2  1  0
  2  3  2  0
  3  4  1  0
  4  5  2  0
  5  6  1  0
  6  7  1  0
  7  8  1  0
  8  9  1  0
  9 10  1  0
 10 11  2  0
 11 12  1  0
 12 13  2  0
 13 14  1  0
  6 15  2  0
 15  2  1  0
 14 10  1  0
  4 16  1  0
  5 17  1  0
  7 18  1  0
  8 19  1  0
  8 20  1  0
  9 21  1  0
  9 22  1  0
 11 23  1  0
 12 24  1  0
 14 25  1  0
M  END
>  <Energy>  (402) 
-35.221699216655708

>  <compound_id>  (402) 
5170

>  <target_id>  (402) 
1

>  <reference_id>  (402) 
112

>  <inspiration_ids>  (402) 
[54, 112]

>  <energy_score>  (402) 
-13.32011347729889

>  <distance_score>  (402) 
9.935859303134075

>  <path>  (402) 
/opt/xchem-fragalysis-2/maxwin/BulkDock/SCRATCH/511018/C5170-P112/C5170-P112.minimised.mol

>  <scratch_subdir>  (402) 
/opt/xchem-fragalysis-2/maxwin/BulkDock/SCRATCH/511018/C5170-P112

>  <fragmenstein_runtime>  (402) 
5.710077285766602

>  <fragmenstein_outcome>  (402) 
too moved

>  <fragmenstein_mode>  (402) 
expansion

>  <fragmenstein_error>  (402) 


$$$$
C5172-P54
     RDKit          3D

 25 26  0  0  0  0  0  0  0  0999 V2000
   -9.5893  -19.7514   21.7272 F   0  0  0  0  0  0  0  0  0  0  0  0
  -10.5573  -20.6020   22.0799 C   0  0  0  0  0  0  0  0  0  0  0  0
  -10.9912  -20.5066   23.3398 N   0  0  0  0  0  0  0  0  0  0  0  0
  -11.9326  -21.3554   23.7054 C   0  0  0  0  0  0  0  0  0  0  0  0
  -12.4604  -22.2441   22.8304 C   0  0  0  0  0  0  0  0  0  0  0  0
  -11.9474  -22.3021   21.5277 C   0  0  0  0  0  0  0  0  0  0  0  0
  -12.5063  -23.0635   20.5061 N   0  0  0  0  0  0  0  0  0  0  0  0
  -12.9402  -24.6019   20.1715 C   0  0  0  0  0  0  0  0  0  0  0  0
  -13.6081  -25.0761   18.6430 C   0  0  0  0  0  0  0  0  0  0  0  0
  -13.2998  -26.4049   17.9397 C   0  0  0  0  0  0  0  0  0  0  0  0
  -12.2666  -27.3202   17.9222 C   0  0  0  0  0  0  0  0  0  0  0  0
  -12.5798  -28.2385   16.9054 C   0  0  0  0  0  0  0  0  0  0  0  0
  -13.7362  -27.9514   16.3127 N   0  0  0  0  0  0  0  0  0  0  0  0
  -14.1238  -26.8192   16.9120 N   0  0  0  0  0  0  0  0  0  0  0  0
  -10.9966  -21.4493   21.1576 N   0  0  0  0  0  0  0  0  0  0  0  0
  -12.2641  -21.3064   24.7290 H   0  0  0  0  0  0  0  0  0  0  0  0
  -13.2990  -22.8455   23.1544 H   0  0  0  0  0  0  0  0  0  0  0  0
  -12.6011  -22.4282   19.7007 H   0  0  0  0  0  0  0  0  0  0  0  0
  -13.5294  -25.0324   20.9792 H   0  0  0  0  0  0  0  0  0  0  0  0
  -11.9686  -24.9510   20.2938 H   0  0  0  0  0  0  0  0  0  0  0  0
  -13.4376  -24.2672   17.9560 H   0  0  0  0  0  0  0  0  0  0  0  0
  -14.6797  -25.0873   18.5223 H   0  0  0  0  0  0  0  0  0  0  0  0
  -11.3648  -27.3176   18.5094 H   0  0  0  0  0  0  0  0  0  0  0  0
  -12.0102  -29.0961   16.5706 H   0  0  0  0  0  0  0  0  0  0  0  0
  -14.9602  -26.3635   16.5627 H   0  0  0  0  0  0  0  0  0  0  0  0
  1  2  1  0
  2  3  2  0
  3  4  1  0
  4  5  2  0
  5  6  1  0
  6  7  1  0
  7  8  1  0
  8  9  1  0
  9 10  1  0
 10 11  2  0
 11 12  1  0
 12 13  2  0
 13 14  1  0
  6 15  2  0
 15  2  1  0
 14 10  1  0
  4 16  1  0
  5 17  1  0
  7 18  1  0
  8 19  1  0
  8 20  1  0
  9 21  1  0
  9 22  1  0
 11 23  1  0
 12 24  1  0
 14 25  1  0
M  END
>  <Energy>  (403) 
26.669512493360479

>  <compound_id>  (403) 
5172

>  <target_id>  (403) 
1

>  <reference_id>  (403) 
54

>  <inspiration_ids>  (403) 
[54, 112]

>  <energy_score>  (403) 
38.18444121914005

>  <distance_score>  (403) 
6.510086772816985

>  <path>  (403) 
/opt/xchem-fragalysis-2/maxwin/BulkDock/SCRATCH/511018/C5172-P54/C5172-P54.minimised.mol

>  <scratch_subdir>  (403) 
/opt/xchem-fragalysis-2/maxwin/BulkDock/SCRATCH/511018/C5172-P54

>  <fragmenstein_runtime>  (403) 
4.748843193054199

>  <fragmenstein_outcome>  (403) 
too moved

>  <fragmenstein_mode>  (403) 
expansion

>  <fragmenstein_error>  (403) 


$$$$
C5172-P112
     RDKit          3D

 25 26  0  0  0  0  0  0  0  0999 V2000
   -9.7931  -22.0278   20.9562 F   0  0  0  0  0  0  0  0  0  0  0  0
  -10.9538  -22.6841   21.0750 C   0  0  0  0  0  0  0  0  0  0  0  0
  -11.7923  -22.0437   21.7595 N   0  0  0  0  0  0  0  0  0  0  0  0
  -12.7541  -22.8050   21.4350 C   0  0  0  0  0  0  0  0  0  0  0  0
  -12.8577  -23.9526   20.3729 C   0  0  0  0  0  0  0  0  0  0  0  0
  -12.0756  -24.8822   20.0419 C   0  0  0  0  0  0  0  0  0  0  0  0
  -12.6821  -25.8946   19.0933 N   0  0  0  0  0  0  0  0  0  0  0  0
  -12.1873  -26.5015   17.8280 C   0  0  0  0  0  0  0  0  0  0  0  0
  -13.0684  -26.1044   16.6264 C   0  0  0  0  0  0  0  0  0  0  0  0
  -12.4101  -26.2865   15.2948 C   0  0  0  0  0  0  0  0  0  0  0  0
  -11.1615  -26.7201   14.8965 C   0  0  0  0  0  0  0  0  0  0  0  0
  -11.1678  -26.6087   13.4951 C   0  0  0  0  0  0  0  0  0  0  0  0
  -12.3302  -26.1503   13.0291 N   0  0  0  0  0  0  0  0  0  0  0  0
  -13.0560  -25.9383   14.1362 N   0  0  0  0  0  0  0  0  0  0  0  0
  -11.0095  -24.3561   20.5698 N   0  0  0  0  0  0  0  0  0  0  0  0
  -13.5154  -22.7357   22.2180 H   0  0  0  0  0  0  0  0  0  0  0  0
  -13.7399  -24.4265   19.9324 H   0  0  0  0  0  0  0  0  0  0  0  0
  -12.8389  -26.6580   19.7519 H   0  0  0  0  0  0  0  0  0  0  0  0
  -12.2619  -27.5914   17.9331 H   0  0  0  0  0  0  0  0  0  0  0  0
  -11.1515  -26.2942   17.6113 H   0  0  0  0  0  0  0  0  0  0  0  0
  -13.3983  -25.0639   16.7223 H   0  0  0  0  0  0  0  0  0  0  0  0
  -13.9858  -26.7072   16.6549 H   0  0  0  0  0  0  0  0  0  0  0  0
  -10.3398  -27.0517   15.5170 H   0  0  0  0  0  0  0  0  0  0  0  0
  -10.3733  -26.8416   12.7974 H   0  0  0  0  0  0  0  0  0  0  0  0
  -13.9858  -25.5458   14.0305 H   0  0  0  0  0  0  0  0  0  0  0  0
  1  2  1  0
  2  3  2  0
  3  4  1  0
  4  5  2  0
  5  6  1  0
  6  7  1  0
  7  8  1  0
  8  9  1  0
  9 10  1  0
 10 11  2  0
 11 12  1  0
 12 13  2  0
 13 14  1  0
  6 15  2  0
 15  2  1  0
 14 10  1  0
  4 16  1  0
  5 17  1  0
  7 18  1  0
  8 19  1  0
  8 20  1  0
  9 21  1  0
  9 22  1  0
 11 23  1  0
 12 24  1  0
 14 25  1  0
M  END
>  <Energy>  (404) 
141.6399431190068

>  <compound_id>  (404) 
5172

>  <target_id>  (404) 
1

>  <reference_id>  (404) 
112

>  <inspiration_ids>  (404) 
[54, 112]

>  <energy_score>  (404) 
153.15487184478428

>  <distance_score>  (404) 
6.3914776675362805

>  <path>  (404) 
/opt/xchem-fragalysis-2/maxwin/BulkDock/SCRATCH/511018/C5172-P112/C5172-P112.minimised.mol

>  <scratch_subdir>  (404) 
/opt/xchem-fragalysis-2/maxwin/BulkDock/SCRATCH/511018/C5172-P112

>  <fragmenstein_runtime>  (404) 
4.777451515197754

>  <fragmenstein_outcome>  (404) 
too moved

>  <fragmenstein_mode>  (404) 
expansion

>  <fragmenstein_error>  (404) 


$$$$
C5173-P54
     RDKit          3D

 28 29  0  0  0  0  0  0  0  0999 V2000
   -9.8487  -22.5085   24.0449 C   0  0  0  0  0  0  0  0  0  0  0  0
  -10.2135  -21.4763   23.0031 C   0  0  0  0  0  0  0  0  0  0  0  0
  -11.5039  -21.3566   23.0848 N   0  0  0  0  0  0  0  0  0  0  0  0
  -11.9673  -21.8448   21.9739 C   0  0  0  0  0  0  0  0  0  0  0  0
  -11.3732  -21.8092   20.7208 C   0  0  0  0  0  0  0  0  0  0  0  0
  -10.1018  -21.3488   20.5751 C   0  0  0  0  0  0  0  0  0  0  0  0
   -9.3309  -21.0552   19.1349 N   0  0  0  0  0  0  0  0  0  0  0  0
   -9.2038  -21.3481   17.2237 C   0  0  0  0  0  0  0  0  0  0  0  0
   -9.6032  -22.8061   15.8521 C   0  0  0  0  0  0  0  0  0  0  0  0
   -9.9462  -23.2724   14.2630 C   0  0  0  0  0  0  0  0  0  0  0  0
   -9.1801  -23.4239   13.1022 C   0  0  0  0  0  0  0  0  0  0  0  0
   -9.9377  -24.1085   12.1451 C   0  0  0  0  0  0  0  0  0  0  0  0
  -11.0012  -24.6573   12.7087 N   0  0  0  0  0  0  0  0  0  0  0  0
  -10.8161  -24.3324   13.9931 N   0  0  0  0  0  0  0  0  0  0  0  0
   -9.4948  -21.3549   21.8149 N   0  0  0  0  0  0  0  0  0  0  0  0
   -8.8446  -22.9001   23.9091 H   0  0  0  0  0  0  0  0  0  0  0  0
  -10.1457  -22.4166   25.0943 H   0  0  0  0  0  0  0  0  0  0  0  0
  -10.6132  -23.2364   24.0007 H   0  0  0  0  0  0  0  0  0  0  0  0
  -12.8781  -22.3922   22.1178 H   0  0  0  0  0  0  0  0  0  0  0  0
  -12.0286  -22.1603   19.9530 H   0  0  0  0  0  0  0  0  0  0  0  0
   -9.0423  -21.9832   19.3650 H   0  0  0  0  0  0  0  0  0  0  0  0
   -9.6745  -20.4171   16.9856 H   0  0  0  0  0  0  0  0  0  0  0  0
   -9.6323  -22.1512   17.6710 H   0  0  0  0  0  0  0  0  0  0  0  0
   -9.9546  -23.6841   16.2917 H   0  0  0  0  0  0  0  0  0  0  0  0
   -8.5953  -23.1906   15.5631 H   0  0  0  0  0  0  0  0  0  0  0  0
   -8.1548  -23.1252   12.9589 H   0  0  0  0  0  0  0  0  0  0  0  0
   -9.7242  -24.2967   11.1051 H   0  0  0  0  0  0  0  0  0  0  0  0
  -11.2691  -24.9387   14.6516 H   0  0  0  0  0  0  0  0  0  0  0  0
  1  2  1  0
  2  3  2  0
  3  4  1  0
  4  5  2  0
  5  6  1  0
  6  7  1  0
  7  8  1  0
  8  9  1  0
  9 10  1  0
 10 11  2  0
 11 12  1  0
 12 13  2  0
 13 14  1  0
  6 15  2  0
 15  2  1  0
 14 10  1  0
  1 16  1  0
  1 17  1  0
  1 18  1  0
  4 19  1  0
  5 20  1  0
  7 21  1  0
  8 22  1  0
  8 23  1  0
  9 24  1  0
  9 25  1  0
 11 26  1  0
 12 27  1  0
 14 28  1  0
M  END
>  <Energy>  (405) 
381.58453851117122

>  <compound_id>  (405) 
5173

>  <target_id>  (405) 
1

>  <reference_id>  (405) 
54

>  <inspiration_ids>  (405) 
[54, 112]

>  <energy_score>  (405) 
380.44365283132254

>  <distance_score>  (405) 
6.006073759072489

>  <path>  (405) 
/opt/xchem-fragalysis-2/maxwin/BulkDock/SCRATCH/511018/C5173-P54/C5173-P54.minimised.mol

>  <scratch_subdir>  (405) 
/opt/xchem-fragalysis-2/maxwin/BulkDock/SCRATCH/511018/C5173-P54

>  <fragmenstein_runtime>  (405) 
5.8019068241119385

>  <fragmenstein_outcome>  (405) 
too moved

>  <fragmenstein_mode>  (405) 
expansion

>  <fragmenstein_error>  (405) 


$$$$
C5173-P112
     RDKit          3D

 28 29  0  0  0  0  0  0  0  0999 V2000
  -14.4312  -26.8697   25.5074 C   0  0  0  0  0  0  0  0  0  0  0  0
  -15.3745  -27.1123   24.3596 C   0  0  0  0  0  0  0  0  0  0  0  0
  -16.6752  -27.1210   24.6481 N   0  0  0  0  0  0  0  0  0  0  0  0
  -17.4897  -27.3654   23.6080 C   0  0  0  0  0  0  0  0  0  0  0  0
  -17.0670  -27.5759   22.3068 C   0  0  0  0  0  0  0  0  0  0  0  0
  -15.7197  -27.4911   22.0625 C   0  0  0  0  0  0  0  0  0  0  0  0
  -15.1633  -27.5546   20.7838 N   0  0  0  0  0  0  0  0  0  0  0  0
  -15.8087  -27.4158   19.4613 C   0  0  0  0  0  0  0  0  0  0  0  0
  -15.1608  -26.3623   18.5229 C   0  0  0  0  0  0  0  0  0  0  0  0
  -14.0990  -26.8558   17.6021 C   0  0  0  0  0  0  0  0  0  0  0  0
  -14.1136  -27.1523   16.2544 C   0  0  0  0  0  0  0  0  0  0  0  0
  -12.7784  -27.4474   15.9320 C   0  0  0  0  0  0  0  0  0  0  0  0
  -11.9766  -27.3580   16.9920 N   0  0  0  0  0  0  0  0  0  0  0  0
  -12.7961  -26.9931   17.9920 N   0  0  0  0  0  0  0  0  0  0  0  0
  -14.8714  -27.2931   23.1105 N   0  0  0  0  0  0  0  0  0  0  0  0
  -13.6554  -27.6403   25.5232 H   0  0  0  0  0  0  0  0  0  0  0  0
  -13.9714  -25.8831   25.4089 H   0  0  0  0  0  0  0  0  0  0  0  0
  -14.9645  -26.9159   26.4619 H   0  0  0  0  0  0  0  0  0  0  0  0
  -18.5491  -27.3917   23.8513 H   0  0  0  0  0  0  0  0  0  0  0  0
  -17.7897  -27.7626   21.5258 H   0  0  0  0  0  0  0  0  0  0  0  0
  -14.1884  -27.2874   20.7885 H   0  0  0  0  0  0  0  0  0  0  0  0
  -16.8528  -27.1167   19.6035 H   0  0  0  0  0  0  0  0  0  0  0  0
  -15.8210  -28.3998   18.9794 H   0  0  0  0  0  0  0  0  0  0  0  0
  -14.7624  -25.5238   19.0955 H   0  0  0  0  0  0  0  0  0  0  0  0
  -15.9621  -25.9457   17.8975 H   0  0  0  0  0  0  0  0  0  0  0  0
  -14.9631  -27.1276   15.5867 H   0  0  0  0  0  0  0  0  0  0  0  0
  -12.3559  -27.7174   14.9725 H   0  0  0  0  0  0  0  0  0  0  0  0
  -12.3968  -26.8295   18.9155 H   0  0  0  0  0  0  0  0  0  0  0  0
  1  2  1  0
  2  3  2  0
  3  4  1  0
  4  5  2  0
  5  6  1  0
  6  7  1  0
  7  8  1  0
  8  9  1  0
  9 10  1  0
 10 11  2  0
 11 12  1  0
 12 13  2  0
 13 14  1  0
  6 15  2  0
 15  2  1  0
 14 10  1  0
  1 16  1  0
  1 17  1  0
  1 18  1  0
  4 19  1  0
  5 20  1  0
  7 21  1  0
  8 22  1  0
  8 23  1  0
  9 24  1  0
  9 25  1  0
 11 26  1  0
 12 27  1  0
 14 28  1  0
M  END
>  <Energy>  (406) 
-24.486337796019154

>  <compound_id>  (406) 
5173

>  <target_id>  (406) 
1

>  <reference_id>  (406) 
112

>  <inspiration_ids>  (406) 
[54, 112]

>  <energy_score>  (406) 
-25.62722347586393

>  <distance_score>  (406) 
7.674519500136487

>  <path>  (406) 
/opt/xchem-fragalysis-2/maxwin/BulkDock/SCRATCH/511018/C5173-P112/C5173-P112.minimised.mol

>  <scratch_subdir>  (406) 
/opt/xchem-fragalysis-2/maxwin/BulkDock/SCRATCH/511018/C5173-P112

>  <fragmenstein_runtime>  (406) 
9.369274616241455

>  <fragmenstein_outcome>  (406) 
too moved

>  <fragmenstein_mode>  (406) 
expansion

>  <fragmenstein_error>  (406) 


$$$$
C5174-P54
     RDKit          3D

 25 26  0  0  0  0  0  0  0  0999 V2000
  -12.1992  -22.6983   20.9287 Br  0  0  0  0  0  0  0  0  0  0  0  0
  -11.2744  -21.1036   21.1013 C   0  0  0  0  0  0  0  0  0  0  0  0
  -11.4258  -20.9332   22.5078 C   0  0  0  0  0  0  0  0  0  0  0  0
  -10.5515  -21.3526   23.3791 N   0  0  0  0  0  0  0  0  0  0  0  0
   -9.4521  -21.6869   22.7821 C   0  0  0  0  0  0  0  0  0  0  0  0
   -9.2332  -21.6182   21.4513 N   0  0  0  0  0  0  0  0  0  0  0  0
  -10.0650  -21.2978   20.4997 C   0  0  0  0  0  0  0  0  0  0  0  0
   -9.4288  -20.8549   19.1712 N   0  0  0  0  0  0  0  0  0  0  0  0
   -9.2480  -21.2166   17.3338 C   0  0  0  0  0  0  0  0  0  0  0  0
   -9.9026  -22.4950   15.9534 C   0  0  0  0  0  0  0  0  0  0  0  0
   -9.9368  -23.7384   14.7759 C   0  0  0  0  0  0  0  0  0  0  0  0
  -10.0219  -25.1324   14.7951 C   0  0  0  0  0  0  0  0  0  0  0  0
  -10.2932  -25.5415   13.4780 C   0  0  0  0  0  0  0  0  0  0  0  0
  -10.4191  -24.5106   12.6543 N   0  0  0  0  0  0  0  0  0  0  0  0
  -10.1813  -23.4457   13.4422 N   0  0  0  0  0  0  0  0  0  0  0  0
  -12.3712  -20.8183   23.0051 H   0  0  0  0  0  0  0  0  0  0  0  0
   -8.6434  -22.1010   23.3643 H   0  0  0  0  0  0  0  0  0  0  0  0
   -8.9388  -21.6966   19.4411 H   0  0  0  0  0  0  0  0  0  0  0  0
   -9.4737  -22.0764   17.8207 H   0  0  0  0  0  0  0  0  0  0  0  0
   -8.1895  -21.0466   17.2672 H   0  0  0  0  0  0  0  0  0  0  0  0
  -10.2491  -21.7652   15.2237 H   0  0  0  0  0  0  0  0  0  0  0  0
   -8.9322  -22.9637   15.7685 H   0  0  0  0  0  0  0  0  0  0  0  0
   -9.9303  -25.8220   15.6149 H   0  0  0  0  0  0  0  0  0  0  0  0
  -10.4204  -26.5455   13.0966 H   0  0  0  0  0  0  0  0  0  0  0  0
  -10.2855  -22.5359   13.0166 H   0  0  0  0  0  0  0  0  0  0  0  0
  1  2  1  0
  2  3  2  0
  3  4  1  0
  4  5  2  0
  5  6  1  0
  6  7  2  0
  7  8  1  0
  8  9  1  0
  9 10  1  0
 10 11  1  0
 11 12  2  0
 12 13  1  0
 13 14  2  0
 14 15  1  0
  7  2  1  0
 15 11  1  0
  3 16  1  0
  5 17  1  0
  8 18  1  0
  9 19  1  0
  9 20  1  0
 10 21  1  0
 10 22  1  0
 12 23  1  0
 13 24  1  0
 15 25  1  0
M  END
>  <Energy>  (407) 
408.12599086656132

>  <compound_id>  (407) 
5174

>  <target_id>  (407) 
1

>  <reference_id>  (407) 
54

>  <inspiration_ids>  (407) 
[54, 112]

>  <energy_score>  (407) 
297.15147152056454

>  <distance_score>  (407) 
5.76776717628874

>  <path>  (407) 
/opt/xchem-fragalysis-2/maxwin/BulkDock/SCRATCH/511018/C5174-P54/C5174-P54.minimised.mol

>  <scratch_subdir>  (407) 
/opt/xchem-fragalysis-2/maxwin/BulkDock/SCRATCH/511018/C5174-P54

>  <fragmenstein_runtime>  (407) 
3.2952187061309814

>  <fragmenstein_outcome>  (407) 
too moved

>  <fragmenstein_mode>  (407) 
expansion

>  <fragmenstein_error>  (407) 


$$$$
C5174-P112
     RDKit          3D

 25 26  0  0  0  0  0  0  0  0999 V2000
  -13.9310  -22.3279   23.4560 Br  0  0  0  0  0  0  0  0  0  0  0  0
  -12.1699  -21.8088   22.9036 C   0  0  0  0  0  0  0  0  0  0  0  0
  -11.6886  -22.1891   24.0685 C   0  0  0  0  0  0  0  0  0  0  0  0
  -10.5886  -22.8652   23.9689 N   0  0  0  0  0  0  0  0  0  0  0  0
   -9.6482  -22.2575   23.2829 C   0  0  0  0  0  0  0  0  0  0  0  0
   -9.9166  -21.3911   22.4011 N   0  0  0  0  0  0  0  0  0  0  0  0
  -11.1370  -21.4934   21.9561 C   0  0  0  0  0  0  0  0  0  0  0  0
  -11.0028  -21.3686   20.5960 N   0  0  0  0  0  0  0  0  0  0  0  0
   -9.3955  -21.1760   19.5433 C   0  0  0  0  0  0  0  0  0  0  0  0
   -9.0994  -21.0887   17.5232 C   0  0  0  0  0  0  0  0  0  0  0  0
   -9.3433  -22.1745   15.8372 C   0  0  0  0  0  0  0  0  0  0  0  0
   -9.6938  -23.4884   15.1990 C   0  0  0  0  0  0  0  0  0  0  0  0
   -9.8882  -23.3823   13.7907 C   0  0  0  0  0  0  0  0  0  0  0  0
   -9.2922  -22.2852   13.4196 N   0  0  0  0  0  0  0  0  0  0  0  0
   -8.6299  -22.0285   14.5707 N   0  0  0  0  0  0  0  0  0  0  0  0
  -12.1896  -22.3087   25.0322 H   0  0  0  0  0  0  0  0  0  0  0  0
   -8.6315  -22.5898   23.4180 H   0  0  0  0  0  0  0  0  0  0  0  0
  -11.7923  -20.7971   20.2728 H   0  0  0  0  0  0  0  0  0  0  0  0
   -9.8240  -22.1092   19.3731 H   0  0  0  0  0  0  0  0  0  0  0  0
   -9.3510  -20.1200   19.4577 H   0  0  0  0  0  0  0  0  0  0  0  0
   -9.4339  -20.0894   17.2868 H   0  0  0  0  0  0  0  0  0  0  0  0
   -8.0144  -20.8445   17.5821 H   0  0  0  0  0  0  0  0  0  0  0  0
  -10.0699  -24.4435   15.5036 H   0  0  0  0  0  0  0  0  0  0  0  0
  -10.3563  -24.0556   13.0866 H   0  0  0  0  0  0  0  0  0  0  0  0
   -7.6629  -21.7426   14.4546 H   0  0  0  0  0  0  0  0  0  0  0  0
  1  2  1  0
  2  3  2  0
  3  4  1  0
  4  5  2  0
  5  6  1  0
  6  7  2  0
  7  8  1  0
  8  9  1  0
  9 10  1  0
 10 11  1  0
 11 12  2  0
 12 13  1  0
 13 14  2  0
 14 15  1  0
  7  2  1  0
 15 11  1  0
  3 16  1  0
  5 17  1  0
  8 18  1  0
  9 19  1  0
  9 20  1  0
 10 21  1  0
 10 22  1  0
 12 23  1  0
 13 24  1  0
 15 25  1  0
M  END
>  <Energy>  (408) 
443.80622385478642

>  <compound_id>  (408) 
5174

>  <target_id>  (408) 
1

>  <reference_id>  (408) 
112

>  <inspiration_ids>  (408) 
[54, 112]

>  <energy_score>  (408) 
332.83170450878777

>  <distance_score>  (408) 
6.083146989624153

>  <path>  (408) 
/opt/xchem-fragalysis-2/maxwin/BulkDock/SCRATCH/511018/C5174-P112/C5174-P112.minimised.mol

>  <scratch_subdir>  (408) 
/opt/xchem-fragalysis-2/maxwin/BulkDock/SCRATCH/511018/C5174-P112

>  <fragmenstein_runtime>  (408) 
4.739102363586426

>  <fragmenstein_outcome>  (408) 
too moved

>  <fragmenstein_mode>  (408) 
expansion

>  <fragmenstein_error>  (408) 


$$$$
C5176-P54
     RDKit          3D

 42 43  0  0  0  0  0  0  0  0999 V2000
   -9.5213  -21.4122   21.0293 C   0  0  0  0  0  0  0  0  0  0  0  0
   -9.8580  -22.0145   19.7675 N   0  0  0  0  0  0  0  0  0  0  0  0
  -11.3451  -21.5450   20.6062 C   0  0  0  0  0  0  0  0  0  0  0  0
  -11.7157  -21.9318   22.3042 C   0  0  0  0  0  0  0  0  0  0  0  0
  -13.0032  -22.3934   22.5236 O   0  0  0  0  0  0  0  0  0  0  0  0
  -11.3176  -21.5315   23.7609 C   0  0  0  0  0  0  0  0  0  0  0  0
  -11.8078  -22.5813   24.8812 N   0  0  0  0  0  0  0  0  0  0  0  0
  -13.2857  -22.6496   25.0289 C   0  0  0  0  0  0  0  0  0  0  0  0
  -11.3235  -22.5799   26.2286 C   0  0  0  0  0  0  0  0  0  0  0  0
  -11.2959  -21.4259   26.9218 N   0  0  0  0  0  0  0  0  0  0  0  0
  -10.9406  -21.4192   28.2184 C   0  0  0  0  0  0  0  0  0  0  0  0
  -10.6258  -22.4920   28.9429 N   0  0  0  0  0  0  0  0  0  0  0  0
  -10.6908  -23.6494   28.2671 C   0  0  0  0  0  0  0  0  0  0  0  0
  -11.0461  -23.7637   26.9294 C   0  0  0  0  0  0  0  0  0  0  0  0
  -11.1499  -25.3668   26.3137 Cl  0  0  0  0  0  0  0  0  0  0  0  0
   -9.3126  -21.5494   18.0214 C   0  0  0  0  0  0  0  0  0  0  0  0
   -8.6465  -20.5734   17.7502 O   0  0  0  0  0  0  0  0  0  0  0  0
   -9.7628  -22.5714   16.3158 C   0  0  0  0  0  0  0  0  0  0  0  0
   -9.9444  -23.9751   15.2154 C   0  0  0  0  0  0  0  0  0  0  0  0
  -10.0291  -25.3751   15.1507 C   0  0  0  0  0  0  0  0  0  0  0  0
  -10.3450  -25.7124   13.8195 C   0  0  0  0  0  0  0  0  0  0  0  0
  -10.4608  -24.6423   13.0491 N   0  0  0  0  0  0  0  0  0  0  0  0
  -10.1512  -23.6284   13.8741 N   0  0  0  0  0  0  0  0  0  0  0  0
  -10.0228  -20.7617   21.7525 H   0  0  0  0  0  0  0  0  0  0  0  0
   -9.0986  -22.0794   21.7415 H   0  0  0  0  0  0  0  0  0  0  0  0
   -8.8333  -20.7640   20.5683 H   0  0  0  0  0  0  0  0  0  0  0  0
  -11.5710  -20.5085   20.4835 H   0  0  0  0  0  0  0  0  0  0  0  0
  -12.0688  -22.1881   20.1095 H   0  0  0  0  0  0  0  0  0  0  0  0
  -11.1847  -22.8039   22.2707 H   0  0  0  0  0  0  0  0  0  0  0  0
  -13.2494  -22.9070   21.7505 H   0  0  0  0  0  0  0  0  0  0  0  0
  -10.2346  -21.5993   23.7305 H   0  0  0  0  0  0  0  0  0  0  0  0
  -11.6978  -20.5372   24.0086 H   0  0  0  0  0  0  0  0  0  0  0  0
  -13.7936  -21.7758   24.6130 H   0  0  0  0  0  0  0  0  0  0  0  0
  -13.6313  -22.7762   26.0605 H   0  0  0  0  0  0  0  0  0  0  0  0
  -13.6669  -23.5352   24.5136 H   0  0  0  0  0  0  0  0  0  0  0  0
  -10.9033  -20.4501   28.7057 H   0  0  0  0  0  0  0  0  0  0  0  0
  -10.4499  -24.5267   28.8612 H   0  0  0  0  0  0  0  0  0  0  0  0
  -10.1880  -21.8136   15.6641 H   0  0  0  0  0  0  0  0  0  0  0  0
   -8.8313  -22.8902   15.8063 H   0  0  0  0  0  0  0  0  0  0  0  0
   -9.9161  -26.1371   15.9070 H   0  0  0  0  0  0  0  0  0  0  0  0
  -10.4999  -26.6943   13.3929 H   0  0  0  0  0  0  0  0  0  0  0  0
  -10.1801  -22.6936   13.4919 H   0  0  0  0  0  0  0  0  0  0  0  0
  1  2  1  0
  2  3  1  0
  3  4  1  0
  4  5  1  0
  4  6  1  0
  6  7  1  0
  7  8  1  0
  7  9  1  0
  9 10  2  0
 10 11  1  0
 11 12  2  0
 12 13  1  0
 13 14  2  0
 14 15  1  0
  2 16  1  0
 16 17  2  0
 16 18  1  0
 18 19  1  0
 19 20  2  0
 20 21  1  0
 21 22  2  0
 22 23  1  0
 14  9  1  0
 23 19  1  0
  1 24  1  0
  1 25  1  0
  1 26  1  0
  3 27  1  0
  3 28  1  0
  4 29  1  0
  5 30  1  0
  6 31  1  0
  6 32  1  0
  8 33  1  0
  8 34  1  0
  8 35  1  0
 11 36  1  0
 13 37  1  0
 18 38  1  0
 18 39  1  0
 20 40  1  0
 21 41  1  0
 23 42  1  0
M  END
>  <Energy>  (409) 
560.79345046353342

>  <compound_id>  (409) 
5176

>  <target_id>  (409) 
1

>  <reference_id>  (409) 
54

>  <inspiration_ids>  (409) 
[54, 112]

>  <energy_score>  (409) 
455.29838554006835

>  <distance_score>  (409) 
3.253396509553436

>  <path>  (409) 
/opt/xchem-fragalysis-2/maxwin/BulkDock/SCRATCH/511018/C5176-P54/C5176-P54.minimised.mol

>  <scratch_subdir>  (409) 
/opt/xchem-fragalysis-2/maxwin/BulkDock/SCRATCH/511018/C5176-P54

>  <fragmenstein_runtime>  (409) 
10.090424537658691

>  <fragmenstein_outcome>  (409) 
too moved

>  <fragmenstein_mode>  (409) 
expansion

>  <fragmenstein_error>  (409) 


$$$$
C5176-P112
     RDKit          3D

 42 43  0  0  0  0  0  0  0  0999 V2000
   -7.9068  -20.9039   17.7394 C   0  0  0  0  0  0  0  0  0  0  0  0
   -9.0741  -21.4939   16.8952 N   0  0  0  0  0  0  0  0  0  0  0  0
   -9.5381  -20.0708   17.7943 C   0  0  0  0  0  0  0  0  0  0  0  0
   -9.6290  -20.7151   19.8253 C   0  0  0  0  0  0  0  0  0  0  0  0
   -9.8817  -22.0971   20.1316 O   0  0  0  0  0  0  0  0  0  0  0  0
  -10.9909  -20.8666   21.3057 C   0  0  0  0  0  0  0  0  0  0  0  0
  -11.7511  -22.0354   22.0347 N   0  0  0  0  0  0  0  0  0  0  0  0
  -12.3117  -22.8139   21.0193 C   0  0  0  0  0  0  0  0  0  0  0  0
  -12.5284  -21.9437   23.3126 C   0  0  0  0  0  0  0  0  0  0  0  0
  -11.9589  -21.5053   24.4172 N   0  0  0  0  0  0  0  0  0  0  0  0
  -12.2337  -22.1941   25.6116 C   0  0  0  0  0  0  0  0  0  0  0  0
  -12.9147  -23.3288   25.7989 N   0  0  0  0  0  0  0  0  0  0  0  0
  -13.7414  -23.5182   24.7928 C   0  0  0  0  0  0  0  0  0  0  0  0
  -13.7098  -22.7117   23.6444 C   0  0  0  0  0  0  0  0  0  0  0  0
  -15.3428  -21.9483   23.8106 Cl  0  0  0  0  0  0  0  0  0  0  0  0
   -9.1480  -21.9400   15.0984 C   0  0  0  0  0  0  0  0  0  0  0  0
   -8.2172  -21.7008   14.3421 O   0  0  0  0  0  0  0  0  0  0  0  0
  -10.2099  -22.7451   14.3363 C   0  0  0  0  0  0  0  0  0  0  0  0
  -10.5623  -24.2396   14.1641 C   0  0  0  0  0  0  0  0  0  0  0  0
  -10.1600  -25.4680   14.6459 C   0  0  0  0  0  0  0  0  0  0  0  0
  -10.9963  -26.4160   14.0275 C   0  0  0  0  0  0  0  0  0  0  0  0
  -11.8783  -25.8499   13.2072 N   0  0  0  0  0  0  0  0  0  0  0  0
  -11.5682  -24.5484   13.2675 N   0  0  0  0  0  0  0  0  0  0  0  0
   -7.4813  -19.9433   18.1357 H   0  0  0  0  0  0  0  0  0  0  0  0
   -6.9494  -21.3275   17.5052 H   0  0  0  0  0  0  0  0  0  0  0  0
   -8.4345  -21.2939   18.5160 H   0  0  0  0  0  0  0  0  0  0  0  0
   -8.7723  -19.3726   17.6772 H   0  0  0  0  0  0  0  0  0  0  0  0
   -9.8702  -19.1015   17.3685 H   0  0  0  0  0  0  0  0  0  0  0  0
   -8.6649  -20.4772   20.2333 H   0  0  0  0  0  0  0  0  0  0  0  0
   -9.7089  -22.2893   21.0840 H   0  0  0  0  0  0  0  0  0  0  0  0
  -10.3968  -20.8211   22.2324 H   0  0  0  0  0  0  0  0  0  0  0  0
  -11.7220  -20.1202   21.2006 H   0  0  0  0  0  0  0  0  0  0  0  0
  -12.3975  -22.2834   20.0875 H   0  0  0  0  0  0  0  0  0  0  0  0
  -13.2748  -22.9941   21.3481 H   0  0  0  0  0  0  0  0  0  0  0  0
  -11.8523  -23.7800   20.8405 H   0  0  0  0  0  0  0  0  0  0  0  0
  -11.8266  -21.7648   26.5264 H   0  0  0  0  0  0  0  0  0  0  0  0
  -14.5577  -24.2083   24.9779 H   0  0  0  0  0  0  0  0  0  0  0  0
   -9.4725  -22.9875   13.5204 H   0  0  0  0  0  0  0  0  0  0  0  0
  -10.6759  -22.0980   13.5762 H   0  0  0  0  0  0  0  0  0  0  0  0
   -9.3892  -25.7012   15.3589 H   0  0  0  0  0  0  0  0  0  0  0  0
  -10.9991  -27.4913   14.1494 H   0  0  0  0  0  0  0  0  0  0  0  0
  -12.0988  -23.9036   12.6912 H   0  0  0  0  0  0  0  0  0  0  0  0
  1  2  1  0
  2  3  1  0
  3  4  1  0
  4  5  1  0
  4  6  1  0
  6  7  1  0
  7  8  1  0
  7  9  1  0
  9 10  2  0
 10 11  1  0
 11 12  2  0
 12 13  1  0
 13 14  2  0
 14 15  1  0
  2 16  1  0
 16 17  2  0
 16 18  1  0
 18 19  1  0
 19 20  2  0
 20 21  1  0
 21 22  2  0
 22 23  1  0
 14  9  1  0
 23 19  1  0
  1 24  1  0
  1 25  1  0
  1 26  1  0
  3 27  1  0
  3 28  1  0
  4 29  1  0
  5 30  1  0
  6 31  1  0
  6 32  1  0
  8 33  1  0
  8 34  1  0
  8 35  1  0
 11 36  1  0
 13 37  1  0
 18 38  1  0
 18 39  1  0
 20 40  1  0
 21 41  1  0
 23 42  1  0
M  END
>  <Energy>  (410) 
791.44899720862145

>  <compound_id>  (410) 
5176

>  <target_id>  (410) 
1

>  <reference_id>  (410) 
112

>  <inspiration_ids>  (410) 
[54, 112]

>  <energy_score>  (410) 
685.9539322851464

>  <distance_score>  (410) 
3.6876069633913904

>  <path>  (410) 
/opt/xchem-fragalysis-2/maxwin/BulkDock/SCRATCH/511018/C5176-P112/C5176-P112.minimised.mol

>  <scratch_subdir>  (410) 
/opt/xchem-fragalysis-2/maxwin/BulkDock/SCRATCH/511018/C5176-P112

>  <fragmenstein_runtime>  (410) 
14.176717519760132

>  <fragmenstein_outcome>  (410) 
too moved

>  <fragmenstein_mode>  (410) 
expansion

>  <fragmenstein_error>  (410) 


$$$$
C5177-P54
     RDKit          3D

 45 46  0  0  0  0  0  0  0  0999 V2000
   -9.7621  -23.9520   28.5757 C   0  0  0  0  0  0  0  0  0  0  0  0
  -10.6727  -23.6774   27.4178 C   0  0  0  0  0  0  0  0  0  0  0  0
  -11.9858  -23.7834   27.6377 N   0  0  0  0  0  0  0  0  0  0  0  0
  -12.7566  -23.3942   26.6203 C   0  0  0  0  0  0  0  0  0  0  0  0
  -12.2704  -22.8678   25.4460 C   0  0  0  0  0  0  0  0  0  0  0  0
  -10.8959  -22.8910   25.2302 C   0  0  0  0  0  0  0  0  0  0  0  0
  -10.3667  -22.5469   23.9377 N   0  0  0  0  0  0  0  0  0  0  0  0
  -11.1087  -21.4337   23.2897 C   0  0  0  0  0  0  0  0  0  0  0  0
   -8.8096  -22.7398   23.5558 C   0  0  0  0  0  0  0  0  0  0  0  0
   -8.2417  -23.6016   22.0352 C   0  0  0  0  0  0  0  0  0  0  0  0
   -9.0772  -22.1117   21.3710 O   0  0  0  0  0  0  0  0  0  0  0  0
   -9.2570  -24.8802   20.8460 C   0  0  0  0  0  0  0  0  0  0  0  0
  -11.1199  -25.1550   19.9944 N   0  0  0  0  0  0  0  0  0  0  0  0
  -10.1621  -24.5817   20.5298 C   0  0  0  0  0  0  0  0  0  0  0  0
  -11.3859  -26.5827   18.7532 C   0  0  0  0  0  0  0  0  0  0  0  0
  -10.6644  -27.3359   18.2612 O   0  0  0  0  0  0  0  0  0  0  0  0
  -12.9534  -26.6528   18.5250 C   0  0  0  0  0  0  0  0  0  0  0  0
  -13.2766  -26.7458   17.0595 C   0  0  0  0  0  0  0  0  0  0  0  0
  -12.6608  -27.3888   16.0023 C   0  0  0  0  0  0  0  0  0  0  0  0
  -13.4327  -27.0642   14.8747 C   0  0  0  0  0  0  0  0  0  0  0  0
  -14.4776  -26.2952   15.1851 N   0  0  0  0  0  0  0  0  0  0  0  0
  -14.3660  -26.1226   16.5105 N   0  0  0  0  0  0  0  0  0  0  0  0
  -10.1163  -23.3273   26.2316 N   0  0  0  0  0  0  0  0  0  0  0  0
   -9.0327  -24.7174   28.3014 H   0  0  0  0  0  0  0  0  0  0  0  0
  -10.3242  -24.3074   29.4448 H   0  0  0  0  0  0  0  0  0  0  0  0
   -9.2330  -23.0373   28.8554 H   0  0  0  0  0  0  0  0  0  0  0  0
  -13.8246  -23.5207   26.7647 H   0  0  0  0  0  0  0  0  0  0  0  0
  -12.9754  -22.5522   24.6882 H   0  0  0  0  0  0  0  0  0  0  0  0
  -11.7889  -21.8346   22.5328 H   0  0  0  0  0  0  0  0  0  0  0  0
  -10.4362  -20.7225   22.8125 H   0  0  0  0  0  0  0  0  0  0  0  0
  -11.7123  -20.8326   23.9794 H   0  0  0  0  0  0  0  0  0  0  0  0
   -8.4074  -21.7423   23.4041 H   0  0  0  0  0  0  0  0  0  0  0  0
   -8.2971  -23.1754   24.3693 H   0  0  0  0  0  0  0  0  0  0  0  0
   -7.1372  -23.7815   21.8064 H   0  0  0  0  0  0  0  0  0  0  0  0
   -9.9744  -22.2996   21.6815 H   0  0  0  0  0  0  0  0  0  0  0  0
   -9.3855  -25.8720   21.4471 H   0  0  0  0  0  0  0  0  0  0  0  0
   -8.2311  -24.9765   20.3361 H   0  0  0  0  0  0  0  0  0  0  0  0
   -9.9645  -23.3426   20.2276 H   0  0  0  0  0  0  0  0  0  0  0  0
  -11.0886  -23.6531   20.9487 H   0  0  0  0  0  0  0  0  0  0  0  0
  -11.0444  -24.8762   21.1762 H   0  0  0  0  0  0  0  0  0  0  0  0
  -13.4558  -25.8041   18.9896 H   0  0  0  0  0  0  0  0  0  0  0  0
  -13.3122  -27.5657   19.0066 H   0  0  0  0  0  0  0  0  0  0  0  0
  -11.7619  -27.9906   16.0341 H   0  0  0  0  0  0  0  0  0  0  0  0
  -13.2777  -27.3559   13.8439 H   0  0  0  0  0  0  0  0  0  0  0  0
  -15.0642  -25.5511   16.9734 H   0  0  0  0  0  0  0  0  0  0  0  0
  1  2  1  0
  2  3  2  0
  3  4  1  0
  4  5  2  0
  5  6  1  0
  6  7  1  0
  7  8  1  0
  7  9  1  0
  9 10  1  0
 10 11  1  0
 10 12  1  0
 12 13  1  0
 13 14  1  0
 13 15  1  0
 15 16  2  0
 15 17  1  0
 17 18  1  0
 18 19  2  0
 19 20  1  0
 20 21  2  0
 21 22  1  0
  6 23  2  0
 23  2  1  0
 22 18  1  0
  1 24  1  0
  1 25  1  0
  1 26  1  0
  4 27  1  0
  5 28  1  0
  8 29  1  0
  8 30  1  0
  8 31  1  0
  9 32  1  0
  9 33  1  0
 10 34  1  0
 11 35  1  0
 12 36  1  0
 12 37  1  0
 14 38  1  0
 14 39  1  0
 14 40  1  0
 17 41  1  0
 17 42  1  0
 19 43  1  0
 20 44  1  0
 22 45  1  0
M  END
>  <Energy>  (411) 
1036.6967368279791

>  <compound_id>  (411) 
5177

>  <target_id>  (411) 
1

>  <reference_id>  (411) 
54

>  <inspiration_ids>  (411) 
[54, 112]

>  <energy_score>  (411) 
980.2461706040856

>  <distance_score>  (411) 
4.420689379842945

>  <path>  (411) 
/opt/xchem-fragalysis-2/maxwin/BulkDock/SCRATCH/511018/C5177-P54/C5177-P54.minimised.mol

>  <scratch_subdir>  (411) 
/opt/xchem-fragalysis-2/maxwin/BulkDock/SCRATCH/511018/C5177-P54

>  <fragmenstein_runtime>  (411) 
22.050642490386963

>  <fragmenstein_outcome>  (411) 
too moved

>  <fragmenstein_mode>  (411) 
expansion

>  <fragmenstein_error>  (411) 


$$$$
C5177-P112
     RDKit          3D

 45 46  0  0  0  0  0  0  0  0999 V2000
  -10.4583  -24.8025   26.6462 C   0  0  0  0  0  0  0  0  0  0  0  0
  -11.1228  -23.8697   25.7328 C   0  0  0  0  0  0  0  0  0  0  0  0
  -12.2159  -23.3644   26.1963 N   0  0  0  0  0  0  0  0  0  0  0  0
  -12.4318  -22.2289   25.5551 C   0  0  0  0  0  0  0  0  0  0  0  0
  -12.1038  -21.7919   24.2636 C   0  0  0  0  0  0  0  0  0  0  0  0
  -11.0818  -22.4566   23.6125 C   0  0  0  0  0  0  0  0  0  0  0  0
  -10.4689  -21.9642   22.3137 N   0  0  0  0  0  0  0  0  0  0  0  0
  -11.5572  -21.2226   21.7840 C   0  0  0  0  0  0  0  0  0  0  0  0
  -10.1250  -22.8829   20.7409 C   0  0  0  0  0  0  0  0  0  0  0  0
   -8.7610  -24.5813   20.6770 C   0  0  0  0  0  0  0  0  0  0  0  0
   -7.8752  -23.9946   21.6288 O   0  0  0  0  0  0  0  0  0  0  0  0
   -7.3931  -24.5039   19.0522 C   0  0  0  0  0  0  0  0  0  0  0  0
   -7.8062  -24.6601   16.9913 N   0  0  0  0  0  0  0  0  0  0  0  0
   -7.1387  -24.4716   18.3738 C   0  0  0  0  0  0  0  0  0  0  0  0
   -8.9010  -23.5216   15.9347 C   0  0  0  0  0  0  0  0  0  0  0  0
   -9.4271  -22.4416   16.1929 O   0  0  0  0  0  0  0  0  0  0  0  0
   -9.3970  -24.0526   14.4360 C   0  0  0  0  0  0  0  0  0  0  0  0
  -10.0772  -25.4004   14.4865 C   0  0  0  0  0  0  0  0  0  0  0  0
   -9.7270  -26.6275   15.0091 C   0  0  0  0  0  0  0  0  0  0  0  0
  -10.8276  -27.4617   14.7534 C   0  0  0  0  0  0  0  0  0  0  0  0
  -11.8081  -26.8256   14.1114 N   0  0  0  0  0  0  0  0  0  0  0  0
  -11.3107  -25.5945   13.9168 N   0  0  0  0  0  0  0  0  0  0  0  0
  -10.5397  -23.4643   24.4712 N   0  0  0  0  0  0  0  0  0  0  0  0
   -9.4213  -24.5025   26.6495 H   0  0  0  0  0  0  0  0  0  0  0  0
  -10.6332  -25.8239   26.3096 H   0  0  0  0  0  0  0  0  0  0  0  0
  -10.8163  -24.6963   27.6706 H   0  0  0  0  0  0  0  0  0  0  0  0
  -12.3924  -21.4400   26.3037 H   0  0  0  0  0  0  0  0  0  0  0  0
  -12.3883  -20.7804   24.0536 H   0  0  0  0  0  0  0  0  0  0  0  0
  -12.4146  -21.8918   21.7482 H   0  0  0  0  0  0  0  0  0  0  0  0
  -11.3761  -20.8804   20.7861 H   0  0  0  0  0  0  0  0  0  0  0  0
  -11.7013  -20.3565   22.3714 H   0  0  0  0  0  0  0  0  0  0  0  0
   -9.8811  -22.0037   20.1507 H   0  0  0  0  0  0  0  0  0  0  0  0
  -11.1531  -23.3466   20.8658 H   0  0  0  0  0  0  0  0  0  0  0  0
   -9.4695  -25.3721   20.9278 H   0  0  0  0  0  0  0  0  0  0  0  0
   -8.5129  -23.6229   22.2960 H   0  0  0  0  0  0  0  0  0  0  0  0
   -8.3884  -24.6319   19.4526 H   0  0  0  0  0  0  0  0  0  0  0  0
   -6.8537  -25.7159   19.5088 H   0  0  0  0  0  0  0  0  0  0  0  0
   -5.9488  -25.0501   18.3991 H   0  0  0  0  0  0  0  0  0  0  0  0
   -6.5972  -23.4855   17.8113 H   0  0  0  0  0  0  0  0  0  0  0  0
   -6.2439  -25.6111   18.0915 H   0  0  0  0  0  0  0  0  0  0  0  0
   -8.9294  -23.8559   13.4711 H   0  0  0  0  0  0  0  0  0  0  0  0
  -10.2308  -23.3604   14.2463 H   0  0  0  0  0  0  0  0  0  0  0  0
   -8.8104  -26.8853   15.5239 H   0  0  0  0  0  0  0  0  0  0  0  0
  -10.9567  -28.5041   15.0125 H   0  0  0  0  0  0  0  0  0  0  0  0
  -11.8793  -24.9221   13.4115 H   0  0  0  0  0  0  0  0  0  0  0  0
  1  2  1  0
  2  3  2  0
  3  4  1  0
  4  5  2  0
  5  6  1  0
  6  7  1  0
  7  8  1  0
  7  9  1  0
  9 10  1  0
 10 11  1  0
 10 12  1  0
 12 13  1  0
 13 14  1  0
 13 15  1  0
 15 16  2  0
 15 17  1  0
 17 18  1  0
 18 19  2  0
 19 20  1  0
 20 21  2  0
 21 22  1  0
  6 23  2  0
 23  2  1  0
 22 18  1  0
  1 24  1  0
  1 25  1  0
  1 26  1  0
  4 27  1  0
  5 28  1  0
  8 29  1  0
  8 30  1  0
  8 31  1  0
  9 32  1  0
  9 33  1  0
 10 34  1  0
 11 35  1  0
 12 36  1  0
 12 37  1  0
 14 38  1  0
 14 39  1  0
 14 40  1  0
 17 41  1  0
 17 42  1  0
 19 43  1  0
 20 44  1  0
 22 45  1  0
M  END
>  <Energy>  (412) 
1433.9225253494183

>  <compound_id>  (412) 
5177

>  <target_id>  (412) 
1

>  <reference_id>  (412) 
112

>  <inspiration_ids>  (412) 
[54, 112]

>  <energy_score>  (412) 
1377.4719591255036

>  <distance_score>  (412) 
4.068952613364497

>  <path>  (412) 
/opt/xchem-fragalysis-2/maxwin/BulkDock/SCRATCH/511018/C5177-P112/C5177-P112.minimised.mol

>  <scratch_subdir>  (412) 
/opt/xchem-fragalysis-2/maxwin/BulkDock/SCRATCH/511018/C5177-P112

>  <fragmenstein_runtime>  (412) 
15.60697889328003

>  <fragmenstein_outcome>  (412) 
too moved

>  <fragmenstein_mode>  (412) 
expansion

>  <fragmenstein_error>  (412) 


$$$$
C5178-P54
     RDKit          3D

 43 46  0  0  0  0  0  0  0  0999 V2000
  -15.6398  -23.6329   20.4363 O   0  0  0  0  0  0  0  0  0  0  0  0
  -14.4532  -23.8602   20.4045 C   0  0  0  0  0  0  0  0  0  0  0  0
  -14.0188  -25.2234   19.8315 C   0  0  0  0  0  0  0  0  0  0  0  0
  -14.5224  -25.6952   18.5044 C   0  0  0  0  0  0  0  0  0  0  0  0
  -13.8773  -26.3210   17.4541 C   0  0  0  0  0  0  0  0  0  0  0  0
  -14.8709  -26.5343   16.4865 C   0  0  0  0  0  0  0  0  0  0  0  0
  -16.0710  -26.1300   16.9037 N   0  0  0  0  0  0  0  0  0  0  0  0
  -15.8465  -25.6798   18.1502 N   0  0  0  0  0  0  0  0  0  0  0  0
  -13.3148  -23.0846   20.9209 N   0  0  0  0  0  0  0  0  0  0  0  0
  -13.2731  -21.8704   21.7075 C   0  0  0  0  0  0  0  0  0  0  0  0
  -13.7113  -22.2691   23.0567 C   0  0  0  0  0  0  0  0  0  0  0  0
  -12.4174  -21.5492   23.0745 C   0  0  0  0  0  0  0  0  0  0  0  0
  -12.6153  -20.8293   24.3086 C   0  0  0  0  0  0  0  0  0  0  0  0
  -12.6169  -21.9551   25.5685 C   0  0  0  0  0  0  0  0  0  0  0  0
  -11.8775  -23.1588   25.3435 N   0  0  0  0  0  0  0  0  0  0  0  0
  -11.6328  -23.8891   26.5214 C   0  0  0  0  0  0  0  0  0  0  0  0
  -12.1226  -23.4542   27.6963 N   0  0  0  0  0  0  0  0  0  0  0  0
  -11.8516  -24.1620   28.8016 C   0  0  0  0  0  0  0  0  0  0  0  0
  -11.1574  -25.3382   28.7807 C   0  0  0  0  0  0  0  0  0  0  0  0
  -10.7151  -25.7321   27.5436 C   0  0  0  0  0  0  0  0  0  0  0  0
  -10.9290  -25.0324   26.4139 N   0  0  0  0  0  0  0  0  0  0  0  0
  -10.6896  -22.8216   24.6029 C   0  0  0  0  0  0  0  0  0  0  0  0
  -11.0009  -22.0050   23.2614 C   0  0  0  0  0  0  0  0  0  0  0  0
  -12.9506  -25.2607   19.8471 H   0  0  0  0  0  0  0  0  0  0  0  0
  -14.3478  -25.9648   20.5721 H   0  0  0  0  0  0  0  0  0  0  0  0
  -12.8308  -26.5825   17.3874 H   0  0  0  0  0  0  0  0  0  0  0  0
  -14.7753  -26.9752   15.5026 H   0  0  0  0  0  0  0  0  0  0  0  0
  -16.6321  -25.3299   18.6942 H   0  0  0  0  0  0  0  0  0  0  0  0
  -12.4583  -23.5338   20.6445 H   0  0  0  0  0  0  0  0  0  0  0  0
  -13.7557  -21.0245   21.2294 H   0  0  0  0  0  0  0  0  0  0  0  0
  -14.6374  -21.7953   23.3899 H   0  0  0  0  0  0  0  0  0  0  0  0
  -13.6128  -23.2551   23.4790 H   0  0  0  0  0  0  0  0  0  0  0  0
  -11.8224  -20.0944   24.4746 H   0  0  0  0  0  0  0  0  0  0  0  0
  -13.5331  -20.2292   24.1926 H   0  0  0  0  0  0  0  0  0  0  0  0
  -12.1105  -21.4908   26.4304 H   0  0  0  0  0  0  0  0  0  0  0  0
  -13.6553  -22.2509   25.7740 H   0  0  0  0  0  0  0  0  0  0  0  0
  -12.2204  -23.7356   29.7282 H   0  0  0  0  0  0  0  0  0  0  0  0
  -10.9671  -25.9046   29.6798 H   0  0  0  0  0  0  0  0  0  0  0  0
  -10.1481  -26.6492   27.4150 H   0  0  0  0  0  0  0  0  0  0  0  0
   -9.9493  -23.5933   24.4932 H   0  0  0  0  0  0  0  0  0  0  0  0
  -10.1685  -22.3405   25.3845 H   0  0  0  0  0  0  0  0  0  0  0  0
  -10.3294  -21.1404   23.2350 H   0  0  0  0  0  0  0  0  0  0  0  0
  -10.8146  -22.3942   22.2889 H   0  0  0  0  0  0  0  0  0  0  0  0
  1  2  2  0
  2  3  1  0
  3  4  1  0
  4  5  2  0
  5  6  1  0
  6  7  2  0
  7  8  1  0
  2  9  1  0
  9 10  1  0
 10 11  1  0
 11 12  1  0
 12 13  1  0
 13 14  1  0
 14 15  1  0
 15 16  1  0
 16 17  2  0
 17 18  1  0
 18 19  2  0
 19 20  1  0
 20 21  2  0
 15 22  1  0
 22 23  1  0
  8  4  1  0
 12 10  1  0
 21 16  1  0
 23 12  1  0
  3 24  1  0
  3 25  1  0
  5 26  1  0
  6 27  1  0
  8 28  1  0
  9 29  1  0
 10 30  1  0
 11 31  1  0
 11 32  1  0
 13 33  1  0
 13 34  1  0
 14 35  1  0
 14 36  1  0
 18 37  1  0
 19 38  1  0
 20 39  1  0
 22 40  1  0
 22 41  1  0
 23 42  1  0
 23 43  1  0
M  END
>  <Energy>  (413) 
77.969544904177894

>  <compound_id>  (413) 
5178

>  <target_id>  (413) 
1

>  <reference_id>  (413) 
54

>  <inspiration_ids>  (413) 
[54, 112]

>  <energy_score>  (413) 
55.65196783954673

>  <distance_score>  (413) 
6.743248024010212

>  <path>  (413) 
/opt/xchem-fragalysis-2/maxwin/BulkDock/SCRATCH/511018/C5178-P54/C5178-P54.minimised.mol

>  <scratch_subdir>  (413) 
/opt/xchem-fragalysis-2/maxwin/BulkDock/SCRATCH/511018/C5178-P54

>  <fragmenstein_runtime>  (413) 
18.384405374526978

>  <fragmenstein_outcome>  (413) 
too moved

>  <fragmenstein_mode>  (413) 
expansion

>  <fragmenstein_error>  (413) 


$$$$
C5178-P112
     RDKit          3D

 43 46  0  0  0  0  0  0  0  0999 V2000
  -11.5622  -21.8315   20.0801 O   0  0  0  0  0  0  0  0  0  0  0  0
  -10.4040  -21.6158   20.3117 C   0  0  0  0  0  0  0  0  0  0  0  0
   -9.2756  -21.1558   18.5400 C   0  0  0  0  0  0  0  0  0  0  0  0
   -9.4742  -21.6947   16.5647 C   0  0  0  0  0  0  0  0  0  0  0  0
   -9.2273  -22.8989   15.6326 C   0  0  0  0  0  0  0  0  0  0  0  0
   -9.5204  -22.8315   14.2813 C   0  0  0  0  0  0  0  0  0  0  0  0
   -9.8517  -21.6071   14.0579 N   0  0  0  0  0  0  0  0  0  0  0  0
   -9.7753  -21.0069   15.3163 N   0  0  0  0  0  0  0  0  0  0  0  0
   -9.7930  -21.5534   21.5422 N   0  0  0  0  0  0  0  0  0  0  0  0
  -10.3324  -21.6230   22.9000 C   0  0  0  0  0  0  0  0  0  0  0  0
   -9.5702  -22.5447   23.5814 C   0  0  0  0  0  0  0  0  0  0  0  0
  -11.0306  -22.8815   24.0710 C   0  0  0  0  0  0  0  0  0  0  0  0
  -12.4662  -22.3633   24.3609 C   0  0  0  0  0  0  0  0  0  0  0  0
  -13.2763  -23.1567   25.4766 C   0  0  0  0  0  0  0  0  0  0  0  0
  -13.0090  -24.5881   25.7311 N   0  0  0  0  0  0  0  0  0  0  0  0
  -13.9054  -25.6021   25.5496 C   0  0  0  0  0  0  0  0  0  0  0  0
  -15.1043  -25.3439   25.0375 N   0  0  0  0  0  0  0  0  0  0  0  0
  -16.0185  -26.3263   25.0296 C   0  0  0  0  0  0  0  0  0  0  0  0
  -15.7752  -27.5837   25.5124 C   0  0  0  0  0  0  0  0  0  0  0  0
  -14.5108  -27.7843   25.9912 C   0  0  0  0  0  0  0  0  0  0  0  0
  -13.5718  -26.8249   26.0020 N   0  0  0  0  0  0  0  0  0  0  0  0
  -11.6723  -24.9600   26.1032 C   0  0  0  0  0  0  0  0  0  0  0  0
  -10.7053  -23.9050   25.5993 C   0  0  0  0  0  0  0  0  0  0  0  0
   -9.5663  -20.1064   18.3979 H   0  0  0  0  0  0  0  0  0  0  0  0
   -8.3124  -20.7080   18.3594 H   0  0  0  0  0  0  0  0  0  0  0  0
   -8.8356  -23.8229   15.9204 H   0  0  0  0  0  0  0  0  0  0  0  0
   -9.4897  -23.5674   13.4925 H   0  0  0  0  0  0  0  0  0  0  0  0
   -9.9455  -20.0169   15.2986 H   0  0  0  0  0  0  0  0  0  0  0  0
   -8.8586  -21.2743   21.4031 H   0  0  0  0  0  0  0  0  0  0  0  0
  -10.6670  -20.6596   23.2539 H   0  0  0  0  0  0  0  0  0  0  0  0
   -8.8300  -23.3252   23.4419 H   0  0  0  0  0  0  0  0  0  0  0  0
   -8.5569  -22.1737   23.6695 H   0  0  0  0  0  0  0  0  0  0  0  0
  -13.0357  -22.4098   23.4249 H   0  0  0  0  0  0  0  0  0  0  0  0
  -12.4158  -21.3073   24.6395 H   0  0  0  0  0  0  0  0  0  0  0  0
  -14.3407  -23.0005   25.2781 H   0  0  0  0  0  0  0  0  0  0  0  0
  -12.9982  -22.6947   26.4271 H   0  0  0  0  0  0  0  0  0  0  0  0
  -16.9847  -26.0520   24.6158 H   0  0  0  0  0  0  0  0  0  0  0  0
  -16.5275  -28.3591   25.5086 H   0  0  0  0  0  0  0  0  0  0  0  0
  -14.2046  -28.7441   26.3949 H   0  0  0  0  0  0  0  0  0  0  0  0
  -11.5595  -25.0481   27.1823 H   0  0  0  0  0  0  0  0  0  0  0  0
  -11.3605  -25.9327   25.7057 H   0  0  0  0  0  0  0  0  0  0  0  0
  -10.7490  -23.2593   26.4861 H   0  0  0  0  0  0  0  0  0  0  0  0
   -9.7420  -24.4018   25.5018 H   0  0  0  0  0  0  0  0  0  0  0  0
  1  2  2  0
  2  3  1  0
  3  4  1  0
  4  5  2  0
  5  6  1  0
  6  7  2  0
  7  8  1  0
  2  9  1  0
  9 10  1  0
 10 11  1  0
 11 12  1  0
 12 13  1  0
 13 14  1  0
 14 15  1  0
 15 16  1  0
 16 17  2  0
 17 18  1  0
 18 19  2  0
 19 20  1  0
 20 21  2  0
 15 22  1  0
 22 23  1  0
  8  4  1  0
 12 10  1  0
 21 16  1  0
 23 12  1  0
  3 24  1  0
  3 25  1  0
  5 26  1  0
  6 27  1  0
  8 28  1  0
  9 29  1  0
 10 30  1  0
 11 31  1  0
 11 32  1  0
 13 33  1  0
 13 34  1  0
 14 35  1  0
 14 36  1  0
 18 37  1  0
 19 38  1  0
 20 39  1  0
 22 40  1  0
 22 41  1  0
 23 42  1  0
 23 43  1  0
M  END
>  <Energy>  (414) 
421.5063519029261

>  <compound_id>  (414) 
5178

>  <target_id>  (414) 
1

>  <reference_id>  (414) 
112

>  <inspiration_ids>  (414) 
[54, 112]

>  <energy_score>  (414) 
399.18877483828766

>  <distance_score>  (414) 
6.7352626718324045

>  <path>  (414) 
/opt/xchem-fragalysis-2/maxwin/BulkDock/SCRATCH/511018/C5178-P112/C5178-P112.minimised.mol

>  <scratch_subdir>  (414) 
/opt/xchem-fragalysis-2/maxwin/BulkDock/SCRATCH/511018/C5178-P112

>  <fragmenstein_runtime>  (414) 
23.281272411346436

>  <fragmenstein_outcome>  (414) 
too moved

>  <fragmenstein_mode>  (414) 
expansion

>  <fragmenstein_error>  (414) 


$$$$
C5180-P54
     RDKit          3D

 43 46  0  0  0  0  0  0  0  0999 V2000
   -8.6680  -21.5759   23.1488 O   0  0  0  0  0  0  0  0  0  0  0  0
   -9.8214  -21.8169   22.8856 C   0  0  0  0  0  0  0  0  0  0  0  0
  -10.2279  -21.3484   21.1075 C   0  0  0  0  0  0  0  0  0  0  0  0
   -9.1535  -20.6307   19.6748 C   0  0  0  0  0  0  0  0  0  0  0  0
   -9.0691  -20.4528   18.2235 C   0  0  0  0  0  0  0  0  0  0  0  0
   -8.3375  -19.2822   17.8564 C   0  0  0  0  0  0  0  0  0  0  0  0
   -7.5879  -18.7696   18.8009 N   0  0  0  0  0  0  0  0  0  0  0  0
   -7.9441  -19.4672   19.8793 N   0  0  0  0  0  0  0  0  0  0  0  0
  -10.9431  -22.6006   23.8818 N   0  0  0  0  0  0  0  0  0  0  0  0
  -11.6913  -21.6085   24.7257 C   0  0  0  0  0  0  0  0  0  0  0  0
  -11.6598  -21.3847   26.3592 C   0  0  0  0  0  0  0  0  0  0  0  0
  -10.7703  -21.8818   27.4442 C   0  0  0  0  0  0  0  0  0  0  0  0
  -10.0392  -22.9817   26.7991 C   0  0  0  0  0  0  0  0  0  0  0  0
  -10.1786  -24.2138   27.7127 C   0  0  0  0  0  0  0  0  0  0  0  0
  -11.5474  -24.5635   27.4649 N   0  0  0  0  0  0  0  0  0  0  0  0
  -12.2620  -25.3824   28.2763 C   0  0  0  0  0  0  0  0  0  0  0  0
  -13.5535  -25.5791   27.9727 N   0  0  0  0  0  0  0  0  0  0  0  0
  -14.2636  -26.3799   28.7830 C   0  0  0  0  0  0  0  0  0  0  0  0
  -13.7258  -27.0199   29.8685 C   0  0  0  0  0  0  0  0  0  0  0  0
  -12.3970  -26.7711   30.0944 C   0  0  0  0  0  0  0  0  0  0  0  0
  -11.6567  -25.9516   29.3294 N   0  0  0  0  0  0  0  0  0  0  0  0
  -11.9631  -24.2733   26.1022 C   0  0  0  0  0  0  0  0  0  0  0  0
  -10.7382  -23.3776   25.4501 C   0  0  0  0  0  0  0  0  0  0  0  0
  -10.5808  -22.2609   20.6586 H   0  0  0  0  0  0  0  0  0  0  0  0
  -11.1167  -20.7143   21.1829 H   0  0  0  0  0  0  0  0  0  0  0  0
   -9.4038  -21.0869   17.4353 H   0  0  0  0  0  0  0  0  0  0  0  0
   -8.3134  -18.7566   16.9188 H   0  0  0  0  0  0  0  0  0  0  0  0
   -7.8569  -19.0446   20.7939 H   0  0  0  0  0  0  0  0  0  0  0  0
  -11.6537  -20.6328   24.2146 H   0  0  0  0  0  0  0  0  0  0  0  0
  -12.7342  -21.9056   24.5238 H   0  0  0  0  0  0  0  0  0  0  0  0
  -12.6077  -21.8101   26.6908 H   0  0  0  0  0  0  0  0  0  0  0  0
  -11.5467  -20.3141   26.5183 H   0  0  0  0  0  0  0  0  0  0  0  0
  -11.3758  -22.1700   28.3154 H   0  0  0  0  0  0  0  0  0  0  0  0
  -10.1149  -21.1183   27.8711 H   0  0  0  0  0  0  0  0  0  0  0  0
   -9.0064  -22.7138   26.7439 H   0  0  0  0  0  0  0  0  0  0  0  0
   -9.9707  -23.9669   28.7608 H   0  0  0  0  0  0  0  0  0  0  0  0
   -9.5189  -25.0325   27.4086 H   0  0  0  0  0  0  0  0  0  0  0  0
  -15.3105  -26.4995   28.5187 H   0  0  0  0  0  0  0  0  0  0  0  0
  -14.3090  -27.6763   30.4990 H   0  0  0  0  0  0  0  0  0  0  0  0
  -11.8719  -27.2335   30.9243 H   0  0  0  0  0  0  0  0  0  0  0  0
  -12.0677  -25.2573   25.6350 H   0  0  0  0  0  0  0  0  0  0  0  0
  -12.9278  -23.7608   26.0516 H   0  0  0  0  0  0  0  0  0  0  0  0
  -10.0434  -24.1358   25.1123 H   0  0  0  0  0  0  0  0  0  0  0  0
  1  2  2  0
  2  3  1  0
  3  4  1  0
  4  5  2  0
  5  6  1  0
  6  7  2  0
  7  8  1  0
  2  9  1  0
  9 10  1  0
 10 11  1  0
 11 12  1  0
 12 13  1  0
 13 14  1  0
 14 15  1  0
 15 16  1  0
 16 17  2  0
 17 18  1  0
 18 19  2  0
 19 20  1  0
 20 21  2  0
 15 22  1  0
 22 23  1  0
  8  4  1  0
 23  9  1  0
 23 13  1  0
 21 16  1  0
  3 24  1  0
  3 25  1  0
  5 26  1  0
  6 27  1  0
  8 28  1  0
 10 29  1  0
 10 30  1  0
 11 31  1  0
 11 32  1  0
 12 33  1  0
 12 34  1  0
 13 35  1  0
 14 36  1  0
 14 37  1  0
 18 38  1  0
 19 39  1  0
 20 40  1  0
 22 41  1  0
 22 42  1  0
 23 43  1  0
M  END
>  <Energy>  (415) 
294.539935141201

>  <compound_id>  (415) 
5180

>  <target_id>  (415) 
1

>  <reference_id>  (415) 
54

>  <inspiration_ids>  (415) 
[54, 112]

>  <energy_score>  (415) 
279.1193777978392

>  <distance_score>  (415) 
7.365324246723952

>  <path>  (415) 
/opt/xchem-fragalysis-2/maxwin/BulkDock/SCRATCH/511018/C5180-P54/C5180-P54.minimised.mol

>  <scratch_subdir>  (415) 
/opt/xchem-fragalysis-2/maxwin/BulkDock/SCRATCH/511018/C5180-P54

>  <fragmenstein_runtime>  (415) 
15.662967681884766

>  <fragmenstein_outcome>  (415) 
too moved

>  <fragmenstein_mode>  (415) 
expansion

>  <fragmenstein_error>  (415) 


$$$$
C5180-P112
     RDKit          3D

 43 46  0  0  0  0  0  0  0  0999 V2000
  -11.6869  -20.8929   24.9346 O   0  0  0  0  0  0  0  0  0  0  0  0
  -12.3421  -21.8888   24.8763 C   0  0  0  0  0  0  0  0  0  0  0  0
  -13.4337  -22.0284   23.9009 C   0  0  0  0  0  0  0  0  0  0  0  0
  -12.4795  -21.9424   22.7335 C   0  0  0  0  0  0  0  0  0  0  0  0
  -11.2418  -21.3368   22.5463 C   0  0  0  0  0  0  0  0  0  0  0  0
  -10.8152  -21.6760   21.3026 C   0  0  0  0  0  0  0  0  0  0  0  0
  -11.7949  -22.2756   20.6922 N   0  0  0  0  0  0  0  0  0  0  0  0
  -12.6202  -22.6185   21.5974 N   0  0  0  0  0  0  0  0  0  0  0  0
  -12.2148  -23.0920   25.5408 N   0  0  0  0  0  0  0  0  0  0  0  0
  -12.9756  -23.0581   26.7611 C   0  0  0  0  0  0  0  0  0  0  0  0
  -12.3587  -21.9596   27.7134 C   0  0  0  0  0  0  0  0  0  0  0  0
  -11.3868  -22.5593   28.6416 C   0  0  0  0  0  0  0  0  0  0  0  0
  -10.7500  -23.6529   27.8688 C   0  0  0  0  0  0  0  0  0  0  0  0
  -10.6539  -25.2126   27.9352 C   0  0  0  0  0  0  0  0  0  0  0  0
  -10.6143  -25.8314   26.5777 N   0  0  0  0  0  0  0  0  0  0  0  0
  -11.8273  -26.5174   26.3220 C   0  0  0  0  0  0  0  0  0  0  0  0
  -11.8798  -27.8131   26.5511 N   0  0  0  0  0  0  0  0  0  0  0  0
  -13.0588  -28.4461   26.3096 C   0  0  0  0  0  0  0  0  0  0  0  0
  -14.2244  -27.8713   25.8898 C   0  0  0  0  0  0  0  0  0  0  0  0
  -14.0989  -26.5539   25.6426 C   0  0  0  0  0  0  0  0  0  0  0  0
  -12.9282  -25.9146   25.8124 N   0  0  0  0  0  0  0  0  0  0  0  0
  -10.2415  -24.6079   25.8852 C   0  0  0  0  0  0  0  0  0  0  0  0
  -11.1829  -23.5890   26.4464 C   0  0  0  0  0  0  0  0  0  0  0  0
  -14.2261  -21.3032   24.0072 H   0  0  0  0  0  0  0  0  0  0  0  0
  -13.9044  -23.0162   23.9258 H   0  0  0  0  0  0  0  0  0  0  0  0
  -10.6649  -20.7441   23.2194 H   0  0  0  0  0  0  0  0  0  0  0  0
   -9.8845  -21.5063   20.7930 H   0  0  0  0  0  0  0  0  0  0  0  0
  -13.3374  -23.2346   21.2904 H   0  0  0  0  0  0  0  0  0  0  0  0
  -13.9343  -22.8626   26.3065 H   0  0  0  0  0  0  0  0  0  0  0  0
  -13.1497  -23.9953   27.2940 H   0  0  0  0  0  0  0  0  0  0  0  0
  -12.9739  -21.3704   28.3718 H   0  0  0  0  0  0  0  0  0  0  0  0
  -11.8096  -21.2696   27.1122 H   0  0  0  0  0  0  0  0  0  0  0  0
  -11.8640  -22.6444   29.5999 H   0  0  0  0  0  0  0  0  0  0  0  0
  -10.6666  -21.7795   28.8393 H   0  0  0  0  0  0  0  0  0  0  0  0
   -9.6957  -23.3566   27.9204 H   0  0  0  0  0  0  0  0  0  0  0  0
   -9.7135  -25.1390   28.4145 H   0  0  0  0  0  0  0  0  0  0  0  0
  -11.0325  -26.0279   28.4970 H   0  0  0  0  0  0  0  0  0  0  0  0
  -13.0380  -29.5213   26.4703 H   0  0  0  0  0  0  0  0  0  0  0  0
  -15.1368  -28.4280   25.7435 H   0  0  0  0  0  0  0  0  0  0  0  0
  -14.9163  -25.9518   25.2579 H   0  0  0  0  0  0  0  0  0  0  0  0
   -9.2102  -24.4010   26.1358 H   0  0  0  0  0  0  0  0  0  0  0  0
  -10.2943  -24.5503   24.8567 H   0  0  0  0  0  0  0  0  0  0  0  0
  -11.8368  -24.4062   26.4984 H   0  0  0  0  0  0  0  0  0  0  0  0
  1  2  2  0
  2  3  1  0
  3  4  1  0
  4  5  2  0
  5  6  1  0
  6  7  2  0
  7  8  1  0
  2  9  1  0
  9 10  1  0
 10 11  1  0
 11 12  1  0
 12 13  1  0
 13 14  1  0
 14 15  1  0
 15 16  1  0
 16 17  2  0
 17 18  1  0
 18 19  2  0
 19 20  1  0
 20 21  2  0
 15 22  1  0
 22 23  1  0
  8  4  1  0
 23  9  1  0
 23 13  1  0
 21 16  1  0
  3 24  1  0
  3 25  1  0
  5 26  1  0
  6 27  1  0
  8 28  1  0
 10 29  1  0
 10 30  1  0
 11 31  1  0
 11 32  1  0
 12 33  1  0
 12 34  1  0
 13 35  1  0
 14 36  1  0
 14 37  1  0
 18 38  1  0
 19 39  1  0
 20 40  1  0
 22 41  1  0
 22 42  1  0
 23 43  1  0
M  END
>  <Energy>  (416) 
282.43471724003666

>  <compound_id>  (416) 
5180

>  <target_id>  (416) 
1

>  <reference_id>  (416) 
112

>  <inspiration_ids>  (416) 
[54, 112]

>  <energy_score>  (416) 
267.0141598966716

>  <distance_score>  (416) 
7.98972733748125

>  <path>  (416) 
/opt/xchem-fragalysis-2/maxwin/BulkDock/SCRATCH/511018/C5180-P112/C5180-P112.minimised.mol

>  <scratch_subdir>  (416) 
/opt/xchem-fragalysis-2/maxwin/BulkDock/SCRATCH/511018/C5180-P112

>  <fragmenstein_runtime>  (416) 
18.696247339248657

>  <fragmenstein_outcome>  (416) 
too moved

>  <fragmenstein_mode>  (416) 
expansion

>  <fragmenstein_error>  (416) 


$$$$
C5181-P54
     RDKit          3D

 43 46  0  0  0  0  0  0  0  0999 V2000
  -12.0402  -19.8461   20.9367 O   0  0  0  0  0  0  0  0  0  0  0  0
  -11.5719  -20.9010   21.3095 C   0  0  0  0  0  0  0  0  0  0  0  0
  -10.0575  -21.3578   20.4827 C   0  0  0  0  0  0  0  0  0  0  0  0
   -8.9369  -20.5021   19.2187 C   0  0  0  0  0  0  0  0  0  0  0  0
   -8.9534  -20.3463   17.8549 C   0  0  0  0  0  0  0  0  0  0  0  0
   -8.6304  -18.9921   17.6086 C   0  0  0  0  0  0  0  0  0  0  0  0
   -7.9061  -18.4959   18.5868 N   0  0  0  0  0  0  0  0  0  0  0  0
   -7.9753  -19.4899   19.4743 N   0  0  0  0  0  0  0  0  0  0  0  0
  -12.0042  -21.8039   22.3987 N   0  0  0  0  0  0  0  0  0  0  0  0
  -11.3044  -21.4462   23.6888 C   0  0  0  0  0  0  0  0  0  0  0  0
  -11.1771  -22.5442   24.8888 C   0  0  0  0  0  0  0  0  0  0  0  0
  -12.5016  -22.7489   25.5081 C   0  0  0  0  0  0  0  0  0  0  0  0
  -13.5110  -22.7748   24.4009 C   0  0  0  0  0  0  0  0  0  0  0  0
  -14.7795  -22.8070   25.2313 C   0  0  0  0  0  0  0  0  0  0  0  0
  -14.4176  -23.9132   26.2616 C   0  0  0  0  0  0  0  0  0  0  0  0
  -12.9510  -23.8400   26.3466 N   0  0  0  0  0  0  0  0  0  0  0  0
  -12.2551  -24.8467   26.9240 C   0  0  0  0  0  0  0  0  0  0  0  0
  -12.9467  -25.7167   27.6799 N   0  0  0  0  0  0  0  0  0  0  0  0
  -12.3057  -26.7972   28.1470 C   0  0  0  0  0  0  0  0  0  0  0  0
  -10.9924  -27.0581   27.8789 C   0  0  0  0  0  0  0  0  0  0  0  0
  -10.3492  -26.1016   27.1380 C   0  0  0  0  0  0  0  0  0  0  0  0
  -10.9521  -25.0009   26.6532 N   0  0  0  0  0  0  0  0  0  0  0  0
  -13.2466  -21.7425   23.3202 C   0  0  0  0  0  0  0  0  0  0  0  0
  -10.5500  -20.5410   19.9503 H   0  0  0  0  0  0  0  0  0  0  0  0
   -9.4177  -21.2264   21.3576 H   0  0  0  0  0  0  0  0  0  0  0  0
   -9.3726  -21.0238   17.1516 H   0  0  0  0  0  0  0  0  0  0  0  0
   -8.7811  -18.3664   16.7414 H   0  0  0  0  0  0  0  0  0  0  0  0
   -7.7753  -19.1809   20.4117 H   0  0  0  0  0  0  0  0  0  0  0  0
  -10.2677  -21.3396   23.3481 H   0  0  0  0  0  0  0  0  0  0  0  0
  -11.5675  -20.4341   24.0377 H   0  0  0  0  0  0  0  0  0  0  0  0
  -10.5983  -23.3892   24.5643 H   0  0  0  0  0  0  0  0  0  0  0  0
  -10.5727  -22.2805   25.7540 H   0  0  0  0  0  0  0  0  0  0  0  0
  -12.5893  -21.9118   26.1802 H   0  0  0  0  0  0  0  0  0  0  0  0
  -13.4900  -23.7303   23.9019 H   0  0  0  0  0  0  0  0  0  0  0  0
  -15.7184  -23.0021   24.7135 H   0  0  0  0  0  0  0  0  0  0  0  0
  -14.9114  -21.8252   25.6493 H   0  0  0  0  0  0  0  0  0  0  0  0
  -14.7253  -24.8860   25.8571 H   0  0  0  0  0  0  0  0  0  0  0  0
  -14.9101  -23.7712   27.2243 H   0  0  0  0  0  0  0  0  0  0  0  0
  -12.9076  -27.4733   28.7462 H   0  0  0  0  0  0  0  0  0  0  0  0
  -10.4958  -27.9477   28.2396 H   0  0  0  0  0  0  0  0  0  0  0  0
   -9.2951  -26.2010   26.8986 H   0  0  0  0  0  0  0  0  0  0  0  0
  -13.4633  -20.7086   23.6386 H   0  0  0  0  0  0  0  0  0  0  0  0
  -14.0461  -21.8726   22.5779 H   0  0  0  0  0  0  0  0  0  0  0  0
  1  2  2  0
  2  3  1  0
  3  4  1  0
  4  5  2  0
  5  6  1  0
  6  7  2  0
  7  8  1  0
  2  9  1  0
  9 10  1  0
 10 11  1  0
 11 12  1  0
 12 13  1  0
 13 14  1  0
 14 15  1  0
 15 16  1  0
 16 17  1  0
 17 18  2  0
 18 19  1  0
 19 20  2  0
 20 21  1  0
 21 22  2  0
 13 23  1  0
  8  4  1  0
 23  9  1  0
 16 12  1  0
 22 17  1  0
  3 24  1  0
  3 25  1  0
  5 26  1  0
  6 27  1  0
  8 28  1  0
 10 29  1  0
 10 30  1  0
 11 31  1  0
 11 32  1  0
 12 33  1  0
 13 34  1  0
 14 35  1  0
 14 36  1  0
 15 37  1  0
 15 38  1  0
 19 39  1  0
 20 40  1  0
 21 41  1  0
 23 42  1  0
 23 43  1  0
M  END
>  <Energy>  (417) 
201.57054521930849

>  <compound_id>  (417) 
5181

>  <target_id>  (417) 
1

>  <reference_id>  (417) 
54

>  <inspiration_ids>  (417) 
[54, 112]

>  <energy_score>  (417) 
199.5937998338348

>  <distance_score>  (417) 
7.605965868884543

>  <path>  (417) 
/opt/xchem-fragalysis-2/maxwin/BulkDock/SCRATCH/511018/C5181-P54/C5181-P54.minimised.mol

>  <scratch_subdir>  (417) 
/opt/xchem-fragalysis-2/maxwin/BulkDock/SCRATCH/511018/C5181-P54

>  <fragmenstein_runtime>  (417) 
26.4795560836792

>  <fragmenstein_outcome>  (417) 
too moved

>  <fragmenstein_mode>  (417) 
expansion

>  <fragmenstein_error>  (417) 


$$$$
C5181-P112
     RDKit          3D

 43 46  0  0  0  0  0  0  0  0999 V2000
   -9.1932  -25.0843   20.9468 O   0  0  0  0  0  0  0  0  0  0  0  0
   -8.2216  -24.3566   21.0439 C   0  0  0  0  0  0  0  0  0  0  0  0
   -7.1040  -24.4972   19.1727 C   0  0  0  0  0  0  0  0  0  0  0  0
   -7.9009  -24.5964   17.1283 C   0  0  0  0  0  0  0  0  0  0  0  0
   -8.7512  -25.9422   16.2679 C   0  0  0  0  0  0  0  0  0  0  0  0
   -9.5930  -25.5588   15.1725 C   0  0  0  0  0  0  0  0  0  0  0  0
   -9.6156  -24.2554   14.9501 N   0  0  0  0  0  0  0  0  0  0  0  0
   -8.7698  -23.6223   15.8620 N   0  0  0  0  0  0  0  0  0  0  0  0
   -8.3351  -23.2917   22.7741 N   0  0  0  0  0  0  0  0  0  0  0  0
   -7.6554  -23.6803   24.5809 C   0  0  0  0  0  0  0  0  0  0  0  0
   -8.4145  -23.7491   26.5198 C   0  0  0  0  0  0  0  0  0  0  0  0
  -10.1500  -23.7631   26.7488 C   0  0  0  0  0  0  0  0  0  0  0  0
  -10.3366  -24.3492   25.3941 C   0  0  0  0  0  0  0  0  0  0  0  0
  -11.0643  -25.7939   25.6755 C   0  0  0  0  0  0  0  0  0  0  0  0
  -11.2527  -25.8562   27.1414 C   0  0  0  0  0  0  0  0  0  0  0  0
  -11.2061  -24.4615   27.4556 N   0  0  0  0  0  0  0  0  0  0  0  0
  -12.4363  -23.8699   26.7343 C   0  0  0  0  0  0  0  0  0  0  0  0
  -13.4206  -24.6984   26.2939 N   0  0  0  0  0  0  0  0  0  0  0  0
  -14.1732  -24.3106   25.2126 C   0  0  0  0  0  0  0  0  0  0  0  0
  -13.9839  -23.1567   24.5164 C   0  0  0  0  0  0  0  0  0  0  0  0
  -12.9398  -22.4184   24.9666 C   0  0  0  0  0  0  0  0  0  0  0  0
  -12.2581  -22.7015   26.0984 N   0  0  0  0  0  0  0  0  0  0  0  0
   -9.6469  -23.1661   24.0219 C   0  0  0  0  0  0  0  0  0  0  0  0
   -6.4693  -25.4155   19.2241 H   0  0  0  0  0  0  0  0  0  0  0  0
   -6.1811  -23.9351   19.0639 H   0  0  0  0  0  0  0  0  0  0  0  0
   -8.6056  -26.9927   16.5179 H   0  0  0  0  0  0  0  0  0  0  0  0
  -10.1706  -26.2142   14.5353 H   0  0  0  0  0  0  0  0  0  0  0  0
   -8.7267  -22.6163   15.9509 H   0  0  0  0  0  0  0  0  0  0  0  0
   -8.0038  -24.6155   24.7096 H   0  0  0  0  0  0  0  0  0  0  0  0
   -6.5986  -23.4966   24.4227 H   0  0  0  0  0  0  0  0  0  0  0  0
   -8.5499  -24.6768   26.8351 H   0  0  0  0  0  0  0  0  0  0  0  0
   -7.8905  -23.0511   27.1994 H   0  0  0  0  0  0  0  0  0  0  0  0
  -10.4529  -22.8258   27.2081 H   0  0  0  0  0  0  0  0  0  0  0  0
   -9.5199  -25.0341   25.3989 H   0  0  0  0  0  0  0  0  0  0  0  0
  -10.6020  -26.7457   25.4262 H   0  0  0  0  0  0  0  0  0  0  0  0
  -12.0581  -25.8747   25.3093 H   0  0  0  0  0  0  0  0  0  0  0  0
  -12.1669  -26.4350   27.3268 H   0  0  0  0  0  0  0  0  0  0  0  0
  -10.4975  -26.4151   27.6709 H   0  0  0  0  0  0  0  0  0  0  0  0
  -14.9796  -24.9912   24.9539 H   0  0  0  0  0  0  0  0  0  0  0  0
  -14.6034  -22.8169   23.7038 H   0  0  0  0  0  0  0  0  0  0  0  0
  -12.6662  -21.4831   24.4836 H   0  0  0  0  0  0  0  0  0  0  0  0
   -9.3302  -24.0805   24.0765 H   0  0  0  0  0  0  0  0  0  0  0  0
  -10.5320  -22.7340   23.5305 H   0  0  0  0  0  0  0  0  0  0  0  0
  1  2  2  0
  2  3  1  0
  3  4  1  0
  4  5  2  0
  5  6  1  0
  6  7  2  0
  7  8  1  0
  2  9  1  0
  9 10  1  0
 10 11  1  0
 11 12  1  0
 12 13  1  0
 13 14  1  0
 14 15  1  0
 15 16  1  0
 16 17  1  0
 17 18  2  0
 18 19  1  0
 19 20  2  0
 20 21  1  0
 21 22  2  0
 13 23  1  0
  8  4  1  0
 23  9  1  0
 16 12  1  0
 22 17  1  0
  3 24  1  0
  3 25  1  0
  5 26  1  0
  6 27  1  0
  8 28  1  0
 10 29  1  0
 10 30  1  0
 11 31  1  0
 11 32  1  0
 12 33  1  0
 13 34  1  0
 14 35  1  0
 14 36  1  0
 15 37  1  0
 15 38  1  0
 19 39  1  0
 20 40  1  0
 21 41  1  0
 23 42  1  0
 23 43  1  0
M  END
>  <Energy>  (418) 
1201.2286360516719

>  <compound_id>  (418) 
5181

>  <target_id>  (418) 
1

>  <reference_id>  (418) 
112

>  <inspiration_ids>  (418) 
[54, 112]

>  <energy_score>  (418) 
1199.2518906661976

>  <distance_score>  (418) 
5.889910669014202

>  <path>  (418) 
/opt/xchem-fragalysis-2/maxwin/BulkDock/SCRATCH/511018/C5181-P112/C5181-P112.minimised.mol

>  <scratch_subdir>  (418) 
/opt/xchem-fragalysis-2/maxwin/BulkDock/SCRATCH/511018/C5181-P112

>  <fragmenstein_runtime>  (418) 
19.141229391098022

>  <fragmenstein_outcome>  (418) 
too moved

>  <fragmenstein_mode>  (418) 
expansion

>  <fragmenstein_error>  (418) 


$$$$
C5182-P54
     RDKit          3D

 47 50  0  0  0  0  0  0  0  0999 V2000
   -6.3375  -26.0836   19.6207 O   0  0  0  0  0  0  0  0  0  0  0  0
   -7.0431  -25.0149   19.4758 C   0  0  0  0  0  0  0  0  0  0  0  0
   -7.8358  -24.9213   17.4110 C   0  0  0  0  0  0  0  0  0  0  0  0
   -8.8230  -26.3709   16.3673 C   0  0  0  0  0  0  0  0  0  0  0  0
   -8.6953  -27.7604   16.2536 C   0  0  0  0  0  0  0  0  0  0  0  0
   -9.6855  -28.1413   15.3280 C   0  0  0  0  0  0  0  0  0  0  0  0
  -10.3692  -27.1085   14.8298 N   0  0  0  0  0  0  0  0  0  0  0  0
   -9.7754  -26.0378   15.3857 N   0  0  0  0  0  0  0  0  0  0  0  0
   -7.1434  -23.7221   20.8678 N   0  0  0  0  0  0  0  0  0  0  0  0
   -6.2363  -23.5998   22.5344 C   0  0  0  0  0  0  0  0  0  0  0  0
   -7.1801  -22.8473   24.0811 C   0  0  0  0  0  0  0  0  0  0  0  0
   -9.0618  -23.0634   24.7536 C   0  0  0  0  0  0  0  0  0  0  0  0
   -9.2574  -22.3034   23.2438 C   0  0  0  0  0  0  0  0  0  0  0  0
   -8.2234  -23.5718   22.1252 C   0  0  0  0  0  0  0  0  0  0  0  0
   -9.4297  -22.6919   26.5793 C   0  0  0  0  0  0  0  0  0  0  0  0
  -10.8512  -22.4127   26.8936 N   0  0  0  0  0  0  0  0  0  0  0  0
  -10.9862  -22.3056   28.2915 C   0  0  0  0  0  0  0  0  0  0  0  0
  -11.3218  -21.1097   28.7854 N   0  0  0  0  0  0  0  0  0  0  0  0
  -11.4057  -20.9920   30.1210 C   0  0  0  0  0  0  0  0  0  0  0  0
  -11.1801  -22.0313   30.9840 C   0  0  0  0  0  0  0  0  0  0  0  0
  -10.8619  -23.2258   30.3936 C   0  0  0  0  0  0  0  0  0  0  0  0
  -10.7669  -23.3927   29.0624 N   0  0  0  0  0  0  0  0  0  0  0  0
  -11.6967  -23.4882   26.4205 C   0  0  0  0  0  0  0  0  0  0  0  0
  -10.7913  -24.6451   26.0247 C   0  0  0  0  0  0  0  0  0  0  0  0
   -9.9046  -24.2586   24.9338 O   0  0  0  0  0  0  0  0  0  0  0  0
   -7.4544  -24.3664   16.5655 H   0  0  0  0  0  0  0  0  0  0  0  0
   -8.6480  -25.7763   17.4013 H   0  0  0  0  0  0  0  0  0  0  0  0
   -7.9859  -28.3872   16.7730 H   0  0  0  0  0  0  0  0  0  0  0  0
   -9.9283  -29.1392   14.9885 H   0  0  0  0  0  0  0  0  0  0  0  0
  -10.0441  -25.1049   15.0861 H   0  0  0  0  0  0  0  0  0  0  0  0
   -5.3830  -22.9452   22.3688 H   0  0  0  0  0  0  0  0  0  0  0  0
   -5.6724  -24.5037   22.8127 H   0  0  0  0  0  0  0  0  0  0  0  0
   -6.4253  -22.5429   24.8022 H   0  0  0  0  0  0  0  0  0  0  0  0
   -7.2845  -21.9266   23.5691 H   0  0  0  0  0  0  0  0  0  0  0  0
  -10.3391  -22.2478   23.0329 H   0  0  0  0  0  0  0  0  0  0  0  0
   -8.8658  -21.3200   23.0540 H   0  0  0  0  0  0  0  0  0  0  0  0
   -8.8552  -22.6020   21.4943 H   0  0  0  0  0  0  0  0  0  0  0  0
   -8.5978  -23.7450   23.0945 H   0  0  0  0  0  0  0  0  0  0  0  0
   -9.1621  -23.5747   27.1766 H   0  0  0  0  0  0  0  0  0  0  0  0
   -8.7738  -22.0207   27.1210 H   0  0  0  0  0  0  0  0  0  0  0  0
  -11.6506  -19.9986   30.4869 H   0  0  0  0  0  0  0  0  0  0  0  0
  -11.2543  -21.9110   32.0563 H   0  0  0  0  0  0  0  0  0  0  0  0
  -10.6619  -24.1085   30.9917 H   0  0  0  0  0  0  0  0  0  0  0  0
  -12.2333  -23.1076   25.5446 H   0  0  0  0  0  0  0  0  0  0  0  0
  -12.4638  -23.8169   27.1339 H   0  0  0  0  0  0  0  0  0  0  0  0
  -10.2183  -25.0873   26.8483 H   0  0  0  0  0  0  0  0  0  0  0  0
  -11.3976  -25.4952   25.6915 H   0  0  0  0  0  0  0  0  0  0  0  0
  1  2  2  0
  2  3  1  0
  3  4  1  0
  4  5  2  0
  5  6  1  0
  6  7  2  0
  7  8  1  0
  2  9  1  0
  9 10  1  0
 10 11  1  0
 11 12  1  0
 12 13  1  0
 13 14  1  0
 12 15  1  0
 15 16  1  0
 16 17  1  0
 17 18  2  0
 18 19  1  0
 19 20  2  0
 20 21  1  0
 21 22  2  0
 16 23  1  0
 23 24  1  0
 24 25  1  0
  8  4  1  0
 14  9  1  0
 22 17  1  0
 25 12  1  0
  3 26  1  0
  3 27  1  0
  5 28  1  0
  6 29  1  0
  8 30  1  0
 10 31  1  0
 10 32  1  0
 11 33  1  0
 11 34  1  0
 13 35  1  0
 13 36  1  0
 14 37  1  0
 14 38  1  0
 15 39  1  0
 15 40  1  0
 19 41  1  0
 20 42  1  0
 21 43  1  0
 23 44  1  0
 23 45  1  0
 24 46  1  0
 24 47  1  0
M  END
>  <Energy>  (419) 
1075.4431631552966

>  <compound_id>  (419) 
5182

>  <target_id>  (419) 
1

>  <reference_id>  (419) 
54

>  <inspiration_ids>  (419) 
[54, 112]

>  <energy_score>  (419) 
1018.0947541691801

>  <distance_score>  (419) 
5.278219590295223

>  <path>  (419) 
/opt/xchem-fragalysis-2/maxwin/BulkDock/SCRATCH/511018/C5182-P54/C5182-P54.minimised.mol

>  <scratch_subdir>  (419) 
/opt/xchem-fragalysis-2/maxwin/BulkDock/SCRATCH/511018/C5182-P54

>  <fragmenstein_runtime>  (419) 
17.56556510925293

>  <fragmenstein_outcome>  (419) 
too moved

>  <fragmenstein_mode>  (419) 
expansion

>  <fragmenstein_error>  (419) 


$$$$
C5182-P112
     RDKit          3D

 47 50  0  0  0  0  0  0  0  0999 V2000
  -11.7198  -21.9753   20.2822 O   0  0  0  0  0  0  0  0  0  0  0  0
  -10.7397  -21.4256   20.6719 C   0  0  0  0  0  0  0  0  0  0  0  0
   -9.3009  -21.1318   19.1993 C   0  0  0  0  0  0  0  0  0  0  0  0
   -9.3082  -21.3345   17.1380 C   0  0  0  0  0  0  0  0  0  0  0  0
   -9.2655  -22.5303   15.8937 C   0  0  0  0  0  0  0  0  0  0  0  0
   -9.4153  -22.2192   14.5811 C   0  0  0  0  0  0  0  0  0  0  0  0
   -9.8686  -21.0202   14.6614 N   0  0  0  0  0  0  0  0  0  0  0  0
   -9.7488  -20.5672   16.0118 N   0  0  0  0  0  0  0  0  0  0  0  0
  -10.6452  -20.8770   22.1242 N   0  0  0  0  0  0  0  0  0  0  0  0
  -11.6196  -20.7892   23.1957 C   0  0  0  0  0  0  0  0  0  0  0  0
  -12.8224  -21.5498   23.8093 C   0  0  0  0  0  0  0  0  0  0  0  0
  -12.2404  -22.3831   24.8577 C   0  0  0  0  0  0  0  0  0  0  0  0
  -11.0490  -22.7571   23.8615 C   0  0  0  0  0  0  0  0  0  0  0  0
  -10.1128  -21.8495   23.0005 C   0  0  0  0  0  0  0  0  0  0  0  0
  -13.2636  -23.4521   25.3114 C   0  0  0  0  0  0  0  0  0  0  0  0
  -12.6237  -24.3353   26.2859 N   0  0  0  0  0  0  0  0  0  0  0  0
  -12.8662  -25.6617   26.2156 C   0  0  0  0  0  0  0  0  0  0  0  0
  -14.0928  -26.0249   25.8031 N   0  0  0  0  0  0  0  0  0  0  0  0
  -14.4076  -27.3189   25.8079 C   0  0  0  0  0  0  0  0  0  0  0  0
  -13.5302  -28.2637   26.2375 C   0  0  0  0  0  0  0  0  0  0  0  0
  -12.3126  -27.7945   26.6743 C   0  0  0  0  0  0  0  0  0  0  0  0
  -11.9317  -26.5238   26.5913 N   0  0  0  0  0  0  0  0  0  0  0  0
  -11.4608  -23.8371   26.9969 C   0  0  0  0  0  0  0  0  0  0  0  0
  -11.6893  -22.3574   27.2500 C   0  0  0  0  0  0  0  0  0  0  0  0
  -11.9180  -21.6058   26.0354 O   0  0  0  0  0  0  0  0  0  0  0  0
   -9.7648  -22.0714   19.1012 H   0  0  0  0  0  0  0  0  0  0  0  0
   -9.4920  -20.1220   19.0084 H   0  0  0  0  0  0  0  0  0  0  0  0
   -8.9795  -23.5534   15.9653 H   0  0  0  0  0  0  0  0  0  0  0  0
   -9.3546  -22.7686   13.6564 H   0  0  0  0  0  0  0  0  0  0  0  0
   -9.9214  -19.5718   16.0632 H   0  0  0  0  0  0  0  0  0  0  0  0
  -12.2048  -20.2609   22.5220 H   0  0  0  0  0  0  0  0  0  0  0  0
  -11.1716  -20.2438   23.9947 H   0  0  0  0  0  0  0  0  0  0  0  0
  -13.5046  -20.8874   24.3135 H   0  0  0  0  0  0  0  0  0  0  0  0
  -13.3763  -22.1353   23.0716 H   0  0  0  0  0  0  0  0  0  0  0  0
  -10.4243  -23.4825   24.3771 H   0  0  0  0  0  0  0  0  0  0  0  0
  -11.6019  -23.0030   22.9730 H   0  0  0  0  0  0  0  0  0  0  0  0
   -9.5740  -22.2010   22.1572 H   0  0  0  0  0  0  0  0  0  0  0  0
   -9.1033  -21.9405   23.3713 H   0  0  0  0  0  0  0  0  0  0  0  0
  -14.1306  -22.9984   25.7658 H   0  0  0  0  0  0  0  0  0  0  0  0
  -13.7173  -23.9785   24.4608 H   0  0  0  0  0  0  0  0  0  0  0  0
  -15.4092  -27.5681   25.4733 H   0  0  0  0  0  0  0  0  0  0  0  0
  -13.8037  -29.3078   26.3031 H   0  0  0  0  0  0  0  0  0  0  0  0
  -11.5901  -28.4349   27.1636 H   0  0  0  0  0  0  0  0  0  0  0  0
  -10.5697  -24.0286   26.3977 H   0  0  0  0  0  0  0  0  0  0  0  0
  -11.2499  -24.3243   27.9412 H   0  0  0  0  0  0  0  0  0  0  0  0
  -12.5320  -22.1597   27.8877 H   0  0  0  0  0  0  0  0  0  0  0  0
  -10.8626  -21.9269   27.8130 H   0  0  0  0  0  0  0  0  0  0  0  0
  1  2  2  0
  2  3  1  0
  3  4  1  0
  4  5  2  0
  5  6  1  0
  6  7  2  0
  7  8  1  0
  2  9  1  0
  9 10  1  0
 10 11  1  0
 11 12  1  0
 12 13  1  0
 13 14  1  0
 12 15  1  0
 15 16  1  0
 16 17  1  0
 17 18  2  0
 18 19  1  0
 19 20  2  0
 20 21  1  0
 21 22  2  0
 16 23  1  0
 23 24  1  0
 24 25  1  0
  8  4  1  0
 14  9  1  0
 22 17  1  0
 25 12  1  0
  3 26  1  0
  3 27  1  0
  5 28  1  0
  6 29  1  0
  8 30  1  0
 10 31  1  0
 10 32  1  0
 11 33  1  0
 11 34  1  0
 13 35  1  0
 13 36  1  0
 14 37  1  0
 14 38  1  0
 15 39  1  0
 15 40  1  0
 19 41  1  0
 20 42  1  0
 21 43  1  0
 23 44  1  0
 23 45  1  0
 24 46  1  0
 24 47  1  0
M  END
>  <Energy>  (420) 
535.12877189689618

>  <compound_id>  (420) 
5182

>  <target_id>  (420) 
1

>  <reference_id>  (420) 
112

>  <inspiration_ids>  (420) 
[54, 112]

>  <energy_score>  (420) 
477.78036291077296

>  <distance_score>  (420) 
6.452578702452709

>  <path>  (420) 
/opt/xchem-fragalysis-2/maxwin/BulkDock/SCRATCH/511018/C5182-P112/C5182-P112.minimised.mol

>  <scratch_subdir>  (420) 
/opt/xchem-fragalysis-2/maxwin/BulkDock/SCRATCH/511018/C5182-P112

>  <fragmenstein_runtime>  (420) 
16.463605403900146

>  <fragmenstein_outcome>  (420) 
too moved

>  <fragmenstein_mode>  (420) 
expansion

>  <fragmenstein_error>  (420) 


$$$$
C5183-P54
     RDKit          3D

 49 52  0  0  0  0  0  0  0  0999 V2000
  -11.1510  -22.6085   20.7394 O   0  0  0  0  0  0  0  0  0  0  0  0
  -10.4461  -21.7538   21.1249 C   0  0  0  0  0  0  0  0  0  0  0  0
   -9.6323  -20.8774   19.6404 C   0  0  0  0  0  0  0  0  0  0  0  0
   -9.2843  -21.4165   17.7468 C   0  0  0  0  0  0  0  0  0  0  0  0
   -9.6624  -22.5640   16.4713 C   0  0  0  0  0  0  0  0  0  0  0  0
  -10.0650  -22.3817   15.1887 C   0  0  0  0  0  0  0  0  0  0  0  0
  -10.3090  -21.1126   15.3735 N   0  0  0  0  0  0  0  0  0  0  0  0
   -9.6552  -20.5868   16.7931 N   0  0  0  0  0  0  0  0  0  0  0  0
  -10.1749  -21.6091   22.7546 N   0  0  0  0  0  0  0  0  0  0  0  0
  -10.5562  -22.4021   23.8368 C   0  0  0  0  0  0  0  0  0  0  0  0
  -10.2164  -23.0887   25.2202 C   0  0  0  0  0  0  0  0  0  0  0  0
  -10.7196  -22.5984   26.5501 C   0  0  0  0  0  0  0  0  0  0  0  0
  -11.7449  -21.5308   26.3150 C   0  0  0  0  0  0  0  0  0  0  0  0
  -12.3794  -21.5241   24.7981 C   0  0  0  0  0  0  0  0  0  0  0  0
  -12.9120  -23.0771   24.8720 C   0  0  0  0  0  0  0  0  0  0  0  0
  -14.2189  -23.2061   25.5678 C   0  0  0  0  0  0  0  0  0  0  0  0
  -14.8287  -22.1709   24.8443 N   0  0  0  0  0  0  0  0  0  0  0  0
  -16.1700  -22.0356   24.9122 C   0  0  0  0  0  0  0  0  0  0  0  0
  -16.7491  -21.0386   24.2469 N   0  0  0  0  0  0  0  0  0  0  0  0
  -18.0667  -20.8836   24.4479 C   0  0  0  0  0  0  0  0  0  0  0  0
  -18.8255  -21.7167   25.2343 C   0  0  0  0  0  0  0  0  0  0  0  0
  -18.1522  -22.7589   25.8104 C   0  0  0  0  0  0  0  0  0  0  0  0
  -16.8390  -22.9465   25.6451 N   0  0  0  0  0  0  0  0  0  0  0  0
  -13.8497  -21.1773   24.3895 C   0  0  0  0  0  0  0  0  0  0  0  0
  -11.2344  -20.6683   23.4434 C   0  0  0  0  0  0  0  0  0  0  0  0
   -8.9553  -21.4673   20.1608 H   0  0  0  0  0  0  0  0  0  0  0  0
   -8.8385  -20.1379   19.5924 H   0  0  0  0  0  0  0  0  0  0  0  0
   -9.5527  -23.6170   16.4001 H   0  0  0  0  0  0  0  0  0  0  0  0
  -10.2291  -22.9642   14.2919 H   0  0  0  0  0  0  0  0  0  0  0  0
   -9.8993  -19.6196   16.8142 H   0  0  0  0  0  0  0  0  0  0  0  0
  -11.3772  -22.8708   23.3640 H   0  0  0  0  0  0  0  0  0  0  0  0
   -9.5975  -22.8493   23.5863 H   0  0  0  0  0  0  0  0  0  0  0  0
  -10.3900  -24.1669   25.2174 H   0  0  0  0  0  0  0  0  0  0  0  0
   -9.1729  -23.0871   25.2748 H   0  0  0  0  0  0  0  0  0  0  0  0
  -11.1545  -23.4353   27.1153 H   0  0  0  0  0  0  0  0  0  0  0  0
   -9.9197  -22.2557   27.2149 H   0  0  0  0  0  0  0  0  0  0  0  0
  -12.4867  -21.7674   27.0756 H   0  0  0  0  0  0  0  0  0  0  0  0
  -11.3537  -20.5539   26.6151 H   0  0  0  0  0  0  0  0  0  0  0  0
  -12.3473  -23.7867   25.4602 H   0  0  0  0  0  0  0  0  0  0  0  0
  -13.1630  -23.3945   23.8580 H   0  0  0  0  0  0  0  0  0  0  0  0
  -14.1436  -23.0885   26.6375 H   0  0  0  0  0  0  0  0  0  0  0  0
  -14.6406  -24.2045   25.4120 H   0  0  0  0  0  0  0  0  0  0  0  0
  -18.5111  -20.0301   23.9452 H   0  0  0  0  0  0  0  0  0  0  0  0
  -19.8850  -21.5634   25.3791 H   0  0  0  0  0  0  0  0  0  0  0  0
  -18.6547  -23.4838   26.4422 H   0  0  0  0  0  0  0  0  0  0  0  0
  -14.2720  -20.1708   24.4369 H   0  0  0  0  0  0  0  0  0  0  0  0
  -13.6028  -21.3759   23.3775 H   0  0  0  0  0  0  0  0  0  0  0  0
  -11.8944  -20.4079   22.6374 H   0  0  0  0  0  0  0  0  0  0  0  0
  -10.8170  -19.7630   23.8334 H   0  0  0  0  0  0  0  0  0  0  0  0
  1  2  2  0
  2  3  1  0
  3  4  1  0
  4  5  2  0
  5  6  1  0
  6  7  2  0
  7  8  1  0
  2  9  1  0
  9 10  1  0
 10 11  1  0
 11 12  1  0
 12 13  1  0
 13 14  1  0
 14 15  1  0
 15 16  1  0
 16 17  1  0
 17 18  1  0
 18 19  2  0
 19 20  1  0
 20 21  2  0
 21 22  1  0
 22 23  2  0
 17 24  1  0
 14 25  1  0
  8  4  1  0
 25  9  1  0
 24 14  1  0
 23 18  1  0
  3 26  1  0
  3 27  1  0
  5 28  1  0
  6 29  1  0
  8 30  1  0
 10 31  1  0
 10 32  1  0
 11 33  1  0
 11 34  1  0
 12 35  1  0
 12 36  1  0
 13 37  1  0
 13 38  1  0
 15 39  1  0
 15 40  1  0
 16 41  1  0
 16 42  1  0
 20 43  1  0
 21 44  1  0
 22 45  1  0
 24 46  1  0
 24 47  1  0
 25 48  1  0
 25 49  1  0
M  END
>  <Energy>  (421) 
610.01851006373488

>  <compound_id>  (421) 
5183

>  <target_id>  (421) 
1

>  <reference_id>  (421) 
54

>  <inspiration_ids>  (421) 
[54, 112]

>  <energy_score>  (421) 
584.8208781087876

>  <distance_score>  (421) 
7.721800062337667

>  <path>  (421) 
/opt/xchem-fragalysis-2/maxwin/BulkDock/SCRATCH/511018/C5183-P54/C5183-P54.minimised.mol

>  <scratch_subdir>  (421) 
/opt/xchem-fragalysis-2/maxwin/BulkDock/SCRATCH/511018/C5183-P54

>  <fragmenstein_runtime>  (421) 
20.69141674041748

>  <fragmenstein_outcome>  (421) 
too moved

>  <fragmenstein_mode>  (421) 
expansion

>  <fragmenstein_error>  (421) 


$$$$
C5183-P112
     RDKit          3D

 49 52  0  0  0  0  0  0  0  0999 V2000
   -8.3862  -20.2073   20.1600 O   0  0  0  0  0  0  0  0  0  0  0  0
   -9.3738  -20.6838   19.6882 C   0  0  0  0  0  0  0  0  0  0  0  0
   -9.0991  -20.9694   17.7554 C   0  0  0  0  0  0  0  0  0  0  0  0
   -9.4563  -21.8973   16.0580 C   0  0  0  0  0  0  0  0  0  0  0  0
   -9.2737  -23.1411   15.3888 C   0  0  0  0  0  0  0  0  0  0  0  0
   -9.6337  -23.1935   14.0356 C   0  0  0  0  0  0  0  0  0  0  0  0
   -9.8482  -21.9709   13.6444 N   0  0  0  0  0  0  0  0  0  0  0  0
   -9.7514  -21.2835   14.8205 N   0  0  0  0  0  0  0  0  0  0  0  0
  -10.7988  -20.8185   20.8377 N   0  0  0  0  0  0  0  0  0  0  0  0
  -10.9980  -20.2939   22.3735 C   0  0  0  0  0  0  0  0  0  0  0  0
  -10.0960  -18.9998   23.5816 C   0  0  0  0  0  0  0  0  0  0  0  0
  -11.2761  -17.7759   24.6439 C   0  0  0  0  0  0  0  0  0  0  0  0
  -11.8614  -19.9106   24.4986 C   0  0  0  0  0  0  0  0  0  0  0  0
  -11.7823  -21.6619   23.6398 C   0  0  0  0  0  0  0  0  0  0  0  0
  -10.8191  -22.7422   23.9974 C   0  0  0  0  0  0  0  0  0  0  0  0
  -11.0903  -23.6323   25.2980 C   0  0  0  0  0  0  0  0  0  0  0  0
  -12.4976  -23.2689   25.5040 N   0  0  0  0  0  0  0  0  0  0  0  0
  -12.3422  -22.9363   26.8221 C   0  0  0  0  0  0  0  0  0  0  0  0
  -12.3980  -21.7213   27.2762 N   0  0  0  0  0  0  0  0  0  0  0  0
  -12.1333  -21.5001   28.5443 C   0  0  0  0  0  0  0  0  0  0  0  0
  -11.2936  -22.2829   29.1777 C   0  0  0  0  0  0  0  0  0  0  0  0
  -10.9459  -23.3897   28.4759 C   0  0  0  0  0  0  0  0  0  0  0  0
  -11.7046  -23.8510   27.5104 N   0  0  0  0  0  0  0  0  0  0  0  0
  -13.0042  -22.4301   24.3220 C   0  0  0  0  0  0  0  0  0  0  0  0
  -11.1694  -21.9470   21.7362 C   0  0  0  0  0  0  0  0  0  0  0  0
   -8.0079  -20.7885   17.7014 H   0  0  0  0  0  0  0  0  0  0  0  0
   -9.3883  -19.9639   17.4614 H   0  0  0  0  0  0  0  0  0  0  0  0
   -8.9254  -24.0197   15.8100 H   0  0  0  0  0  0  0  0  0  0  0  0
   -9.6608  -24.0240   13.3447 H   0  0  0  0  0  0  0  0  0  0  0  0
  -10.0363  -20.3220   14.7637 H   0  0  0  0  0  0  0  0  0  0  0  0
  -10.1943  -20.8692   22.8796 H   0  0  0  0  0  0  0  0  0  0  0  0
  -12.0539  -20.2466   22.4429 H   0  0  0  0  0  0  0  0  0  0  0  0
   -9.0252  -19.1878   23.6201 H   0  0  0  0  0  0  0  0  0  0  0  0
   -9.8156  -18.1312   23.1624 H   0  0  0  0  0  0  0  0  0  0  0  0
  -10.4064  -17.2809   25.1614 H   0  0  0  0  0  0  0  0  0  0  0  0
  -11.7738  -16.9252   24.0473 H   0  0  0  0  0  0  0  0  0  0  0  0
  -12.9209  -19.9037   24.2721 H   0  0  0  0  0  0  0  0  0  0  0  0
  -11.8523  -20.4615   25.4408 H   0  0  0  0  0  0  0  0  0  0  0  0
  -11.2494  -23.1731   23.1847 H   0  0  0  0  0  0  0  0  0  0  0  0
   -9.7682  -22.6166   23.7137 H   0  0  0  0  0  0  0  0  0  0  0  0
  -10.9109  -24.7310   25.2813 H   0  0  0  0  0  0  0  0  0  0  0  0
  -10.3460  -23.5882   26.0906 H   0  0  0  0  0  0  0  0  0  0  0  0
  -12.5485  -20.6336   29.0282 H   0  0  0  0  0  0  0  0  0  0  0  0
  -11.0874  -22.0026   30.1805 H   0  0  0  0  0  0  0  0  0  0  0  0
  -10.2026  -24.1193   28.7235 H   0  0  0  0  0  0  0  0  0  0  0  0
  -13.8710  -21.8101   24.4905 H   0  0  0  0  0  0  0  0  0  0  0  0
  -13.4358  -23.1195   23.5907 H   0  0  0  0  0  0  0  0  0  0  0  0
  -10.1254  -22.1992   21.7377 H   0  0  0  0  0  0  0  0  0  0  0  0
  -11.8269  -22.6617   21.2367 H   0  0  0  0  0  0  0  0  0  0  0  0
  1  2  2  0
  2  3  1  0
  3  4  1  0
  4  5  2  0
  5  6  1  0
  6  7  2  0
  7  8  1  0
  2  9  1  0
  9 10  1  0
 10 11  1  0
 11 12  1  0
 12 13  1  0
 13 14  1  0
 14 15  1  0
 15 16  1  0
 16 17  1  0
 17 18  1  0
 18 19  2  0
 19 20  1  0
 20 21  2  0
 21 22  1  0
 22 23  2  0
 17 24  1  0
 14 25  1  0
  8  4  1  0
 25  9  1  0
 24 14  1  0
 23 18  1  0
  3 26  1  0
  3 27  1  0
  5 28  1  0
  6 29  1  0
  8 30  1  0
 10 31  1  0
 10 32  1  0
 11 33  1  0
 11 34  1  0
 12 35  1  0
 12 36  1  0
 13 37  1  0
 13 38  1  0
 15 39  1  0
 15 40  1  0
 16 41  1  0
 16 42  1  0
 20 43  1  0
 21 44  1  0
 22 45  1  0
 24 46  1  0
 24 47  1  0
 25 48  1  0
 25 49  1  0
M  END
>  <Energy>  (422) 
1059.968450100095

>  <compound_id>  (422) 
5183

>  <target_id>  (422) 
1

>  <reference_id>  (422) 
112

>  <inspiration_ids>  (422) 
[54, 112]

>  <energy_score>  (422) 
1034.7708181451515

>  <distance_score>  (422) 
6.101978982758135

>  <path>  (422) 
/opt/xchem-fragalysis-2/maxwin/BulkDock/SCRATCH/511018/C5183-P112/C5183-P112.minimised.mol

>  <scratch_subdir>  (422) 
/opt/xchem-fragalysis-2/maxwin/BulkDock/SCRATCH/511018/C5183-P112

>  <fragmenstein_runtime>  (422) 
22.034591674804688

>  <fragmenstein_outcome>  (422) 
too moved

>  <fragmenstein_mode>  (422) 
expansion

>  <fragmenstein_error>  (422) 


$$$$
C5184-P54
     RDKit          3D

 40 43  0  0  0  0  0  0  0  0999 V2000
   -9.2387  -25.4279   20.9280 O   0  0  0  0  0  0  0  0  0  0  0  0
   -8.3834  -24.6404   20.9339 C   0  0  0  0  0  0  0  0  0  0  0  0
   -7.1666  -24.7014   19.1507 C   0  0  0  0  0  0  0  0  0  0  0  0
   -8.0117  -25.0031   17.1729 C   0  0  0  0  0  0  0  0  0  0  0  0
   -8.8435  -26.4554   16.5613 C   0  0  0  0  0  0  0  0  0  0  0  0
   -9.6816  -26.1958   15.4406 C   0  0  0  0  0  0  0  0  0  0  0  0
   -9.7261  -24.9240   15.0852 N   0  0  0  0  0  0  0  0  0  0  0  0
   -8.8218  -24.2105   15.8511 N   0  0  0  0  0  0  0  0  0  0  0  0
   -7.9969  -23.2419   22.1524 N   0  0  0  0  0  0  0  0  0  0  0  0
   -8.7990  -22.4544   23.6672 C   0  0  0  0  0  0  0  0  0  0  0  0
   -9.7347  -22.7687   25.4393 C   0  0  0  0  0  0  0  0  0  0  0  0
  -10.9540  -22.4417   26.4150 C   0  0  0  0  0  0  0  0  0  0  0  0
  -11.0303  -23.7861   27.0328 N   0  0  0  0  0  0  0  0  0  0  0  0
  -12.2221  -24.2604   27.5394 C   0  0  0  0  0  0  0  0  0  0  0  0
  -13.3756  -23.9061   26.9612 N   0  0  0  0  0  0  0  0  0  0  0  0
  -14.4910  -24.5278   27.3872 C   0  0  0  0  0  0  0  0  0  0  0  0
  -14.4976  -25.5045   28.3483 C   0  0  0  0  0  0  0  0  0  0  0  0
  -13.2687  -25.8249   28.8591 C   0  0  0  0  0  0  0  0  0  0  0  0
  -12.1303  -25.2318   28.4651 N   0  0  0  0  0  0  0  0  0  0  0  0
  -10.5326  -24.7185   26.0138 C   0  0  0  0  0  0  0  0  0  0  0  0
  -10.3279  -23.7928   24.7718 C   0  0  0  0  0  0  0  0  0  0  0  0
   -8.9935  -23.0283   23.7632 C   0  0  0  0  0  0  0  0  0  0  0  0
   -6.2773  -25.3798   19.2876 H   0  0  0  0  0  0  0  0  0  0  0  0
   -6.4542  -23.8445   19.0037 H   0  0  0  0  0  0  0  0  0  0  0  0
   -8.7166  -27.4418   16.9914 H   0  0  0  0  0  0  0  0  0  0  0  0
  -10.2825  -26.9113   14.8969 H   0  0  0  0  0  0  0  0  0  0  0  0
   -8.7913  -23.2080   15.8373 H   0  0  0  0  0  0  0  0  0  0  0  0
   -9.1412  -21.3632   23.1706 H   0  0  0  0  0  0  0  0  0  0  0  0
   -7.6100  -22.0725   24.0124 H   0  0  0  0  0  0  0  0  0  0  0  0
   -9.0047  -22.8930   26.2487 H   0  0  0  0  0  0  0  0  0  0  0  0
  -10.7006  -21.7092   27.1886 H   0  0  0  0  0  0  0  0  0  0  0  0
  -11.8738  -22.1168   25.9154 H   0  0  0  0  0  0  0  0  0  0  0  0
  -15.4162  -24.1959   26.9231 H   0  0  0  0  0  0  0  0  0  0  0  0
  -15.4103  -25.9798   28.6793 H   0  0  0  0  0  0  0  0  0  0  0  0
  -13.1542  -26.5920   29.6185 H   0  0  0  0  0  0  0  0  0  0  0  0
  -11.2497  -25.5149   25.7698 H   0  0  0  0  0  0  0  0  0  0  0  0
   -9.6535  -25.2557   26.3768 H   0  0  0  0  0  0  0  0  0  0  0  0
  -11.2467  -23.2278   24.5046 H   0  0  0  0  0  0  0  0  0  0  0  0
   -8.5853  -23.9824   24.2865 H   0  0  0  0  0  0  0  0  0  0  0  0
  -10.2968  -22.6714   23.1578 H   0  0  0  0  0  0  0  0  0  0  0  0
  1  2  2  0
  2  3  1  0
  3  4  1  0
  4  5  2  0
  5  6  1  0
  6  7  2  0
  7  8  1  0
  2  9  1  0
  9 10  1  0
 10 11  1  0
 11 12  1  0
 12 13  1  0
 13 14  1  0
 14 15  2  0
 15 16  1  0
 16 17  2  0
 17 18  1  0
 18 19  2  0
 13 20  1  0
 20 21  1  0
 21 22  1  0
  8  4  1  0
 22  9  1  0
 21 11  1  0
 19 14  1  0
  3 23  1  0
  3 24  1  0
  5 25  1  0
  6 26  1  0
  8 27  1  0
 10 28  1  0
 10 29  1  0
 11 30  1  0
 12 31  1  0
 12 32  1  0
 16 33  1  0
 17 34  1  0
 18 35  1  0
 20 36  1  0
 20 37  1  0
 21 38  1  0
 22 39  1  0
 22 40  1  0
M  END
>  <Energy>  (423) 
1367.178073816614

>  <compound_id>  (423) 
5184

>  <target_id>  (423) 
1

>  <reference_id>  (423) 
54

>  <inspiration_ids>  (423) 
[54, 112]

>  <energy_score>  (423) 
1378.8185074254995

>  <distance_score>  (423) 
5.857231310767549

>  <path>  (423) 
/opt/xchem-fragalysis-2/maxwin/BulkDock/SCRATCH/511018/C5184-P54/C5184-P54.minimised.mol

>  <scratch_subdir>  (423) 
/opt/xchem-fragalysis-2/maxwin/BulkDock/SCRATCH/511018/C5184-P54

>  <fragmenstein_runtime>  (423) 
12.263280391693115

>  <fragmenstein_outcome>  (423) 
too moved

>  <fragmenstein_mode>  (423) 
expansion

>  <fragmenstein_error>  (423) 


$$$$
C5184-P112
     RDKit          3D

 40 43  0  0  0  0  0  0  0  0999 V2000
  -14.7696  -27.4710   21.5419 O   0  0  0  0  0  0  0  0  0  0  0  0
  -15.4589  -28.3769   21.4171 C   0  0  0  0  0  0  0  0  0  0  0  0
  -15.8457  -28.9823   20.0467 C   0  0  0  0  0  0  0  0  0  0  0  0
  -15.0312  -28.4663   18.8705 C   0  0  0  0  0  0  0  0  0  0  0  0
  -14.2486  -27.3474   18.6458 C   0  0  0  0  0  0  0  0  0  0  0  0
  -13.7704  -27.4696   17.3292 C   0  0  0  0  0  0  0  0  0  0  0  0
  -14.2298  -28.5695   16.7333 N   0  0  0  0  0  0  0  0  0  0  0  0
  -14.9904  -29.1478   17.6777 N   0  0  0  0  0  0  0  0  0  0  0  0
  -16.2500  -29.3326   22.5010 N   0  0  0  0  0  0  0  0  0  0  0  0
  -16.5483  -29.3311   24.3846 C   0  0  0  0  0  0  0  0  0  0  0  0
  -16.2502  -28.2467   25.4227 C   0  0  0  0  0  0  0  0  0  0  0  0
  -15.0167  -28.2299   26.3142 C   0  0  0  0  0  0  0  0  0  0  0  0
  -14.7724  -26.8109   26.2887 N   0  0  0  0  0  0  0  0  0  0  0  0
  -13.4769  -26.3497   26.2789 C   0  0  0  0  0  0  0  0  0  0  0  0
  -13.3310  -25.0238   26.1520 N   0  0  0  0  0  0  0  0  0  0  0  0
  -12.1535  -24.4557   26.4487 C   0  0  0  0  0  0  0  0  0  0  0  0
  -11.0810  -25.2020   26.8162 C   0  0  0  0  0  0  0  0  0  0  0  0
  -11.3206  -26.5580   26.8984 C   0  0  0  0  0  0  0  0  0  0  0  0
  -12.4754  -27.1606   26.5785 N   0  0  0  0  0  0  0  0  0  0  0  0
  -15.6449  -26.2511   25.2544 C   0  0  0  0  0  0  0  0  0  0  0  0
  -15.9787  -27.4080   24.2496 C   0  0  0  0  0  0  0  0  0  0  0  0
  -16.0446  -29.2092   23.8565 C   0  0  0  0  0  0  0  0  0  0  0  0
  -16.9032  -28.7556   19.8693 H   0  0  0  0  0  0  0  0  0  0  0  0
  -15.7254  -30.0705   20.1077 H   0  0  0  0  0  0  0  0  0  0  0  0
  -14.0326  -26.5461   19.3379 H   0  0  0  0  0  0  0  0  0  0  0  0
  -13.1149  -26.8019   16.7849 H   0  0  0  0  0  0  0  0  0  0  0  0
  -15.4564  -30.0170   17.4413 H   0  0  0  0  0  0  0  0  0  0  0  0
  -17.7836  -29.2054   24.3200 H   0  0  0  0  0  0  0  0  0  0  0  0
  -16.7475  -30.4646   24.8897 H   0  0  0  0  0  0  0  0  0  0  0  0
  -17.1672  -28.0000   25.9829 H   0  0  0  0  0  0  0  0  0  0  0  0
  -14.2040  -28.8392   25.9038 H   0  0  0  0  0  0  0  0  0  0  0  0
  -15.2688  -28.5816   27.3167 H   0  0  0  0  0  0  0  0  0  0  0  0
  -12.1260  -23.3713   26.4025 H   0  0  0  0  0  0  0  0  0  0  0  0
  -10.1605  -24.7270   27.1124 H   0  0  0  0  0  0  0  0  0  0  0  0
  -10.6043  -27.2452   27.3255 H   0  0  0  0  0  0  0  0  0  0  0  0
  -15.2174  -25.3990   24.7138 H   0  0  0  0  0  0  0  0  0  0  0  0
  -16.5669  -25.8551   25.7069 H   0  0  0  0  0  0  0  0  0  0  0  0
  -15.0180  -27.2521   23.7412 H   0  0  0  0  0  0  0  0  0  0  0  0
  -15.1033  -30.1652   24.1342 H   0  0  0  0  0  0  0  0  0  0  0  0
  -14.8835  -28.9590   23.5701 H   0  0  0  0  0  0  0  0  0  0  0  0
  1  2  2  0
  2  3  1  0
  3  4  1  0
  4  5  2  0
  5  6  1  0
  6  7  2  0
  7  8  1  0
  2  9  1  0
  9 10  1  0
 10 11  1  0
 11 12  1  0
 12 13  1  0
 13 14  1  0
 14 15  2  0
 15 16  1  0
 16 17  2  0
 17 18  1  0
 18 19  2  0
 13 20  1  0
 20 21  1  0
 21 22  1  0
  8  4  1  0
 22  9  1  0
 21 11  1  0
 19 14  1  0
  3 23  1  0
  3 24  1  0
  5 25  1  0
  6 26  1  0
  8 27  1  0
 10 28  1  0
 10 29  1  0
 11 30  1  0
 12 31  1  0
 12 32  1  0
 16 33  1  0
 17 34  1  0
 18 35  1  0
 20 36  1  0
 20 37  1  0
 21 38  1  0
 22 39  1  0
 22 40  1  0
M  END
>  <Energy>  (424) 
767.20826672437215

>  <compound_id>  (424) 
5184

>  <target_id>  (424) 
1

>  <reference_id>  (424) 
112

>  <inspiration_ids>  (424) 
[54, 112]

>  <energy_score>  (424) 
778.848700333248

>  <distance_score>  (424) 
8.119072866359794

>  <path>  (424) 
/opt/xchem-fragalysis-2/maxwin/BulkDock/SCRATCH/511018/C5184-P112/C5184-P112.minimised.mol

>  <scratch_subdir>  (424) 
/opt/xchem-fragalysis-2/maxwin/BulkDock/SCRATCH/511018/C5184-P112

>  <fragmenstein_runtime>  (424) 
23.119521617889404

>  <fragmenstein_outcome>  (424) 
too moved

>  <fragmenstein_mode>  (424) 
expansion

>  <fragmenstein_error>  (424) 


$$$$
C5185-P54
     RDKit          3D

 47 51  0  0  0  0  0  0  0  0999 V2000
   -5.4064  -23.4743   20.6218 O   0  0  0  0  0  0  0  0  0  0  0  0
   -6.5999  -23.8486   20.4032 C   0  0  0  0  0  0  0  0  0  0  0  0
   -6.7322  -24.6128   18.6327 C   0  0  0  0  0  0  0  0  0  0  0  0
   -8.0120  -24.9853   17.0413 C   0  0  0  0  0  0  0  0  0  0  0  0
   -8.8522  -26.4402   16.5047 C   0  0  0  0  0  0  0  0  0  0  0  0
   -9.7264  -26.1686   15.4143 C   0  0  0  0  0  0  0  0  0  0  0  0
   -9.7675  -24.8951   15.0532 N   0  0  0  0  0  0  0  0  0  0  0  0
   -8.8371  -24.1921   15.7899 N   0  0  0  0  0  0  0  0  0  0  0  0
   -8.1652  -23.6104   21.4275 N   0  0  0  0  0  0  0  0  0  0  0  0
   -9.4640  -22.1155   21.2883 C   0  0  0  0  0  0  0  0  0  0  0  0
  -10.7922  -21.9340   22.4576 C   0  0  0  0  0  0  0  0  0  0  0  0
  -10.2556  -20.7327   22.9374 C   0  0  0  0  0  0  0  0  0  0  0  0
   -8.7757  -21.3089   22.9897 C   0  0  0  0  0  0  0  0  0  0  0  0
   -8.3757  -22.8336   23.1783 C   0  0  0  0  0  0  0  0  0  0  0  0
   -9.7945  -23.0890   24.4264 C   0  0  0  0  0  0  0  0  0  0  0  0
  -10.0616  -23.0709   26.0361 C   0  0  0  0  0  0  0  0  0  0  0  0
  -11.4305  -22.6281   26.2099 N   0  0  0  0  0  0  0  0  0  0  0  0
  -12.2226  -23.5028   26.9293 C   0  0  0  0  0  0  0  0  0  0  0  0
  -13.4531  -23.8067   26.4933 N   0  0  0  0  0  0  0  0  0  0  0  0
  -14.1889  -24.6584   27.2301 C   0  0  0  0  0  0  0  0  0  0  0  0
  -13.7350  -25.2588   28.3742 C   0  0  0  0  0  0  0  0  0  0  0  0
  -12.4595  -24.9207   28.7361 C   0  0  0  0  0  0  0  0  0  0  0  0
  -11.6977  -24.0638   28.0370 N   0  0  0  0  0  0  0  0  0  0  0  0
  -11.9358  -21.9580   25.0203 C   0  0  0  0  0  0  0  0  0  0  0  0
  -11.0785  -22.4849   23.8525 C   0  0  0  0  0  0  0  0  0  0  0  0
   -6.2915  -23.6905   18.2061 H   0  0  0  0  0  0  0  0  0  0  0  0
   -5.9027  -25.3512   18.7363 H   0  0  0  0  0  0  0  0  0  0  0  0
   -8.6574  -27.4280   16.9045 H   0  0  0  0  0  0  0  0  0  0  0  0
  -10.3421  -26.8801   14.8817 H   0  0  0  0  0  0  0  0  0  0  0  0
   -8.7417  -23.1986   15.7309 H   0  0  0  0  0  0  0  0  0  0  0  0
   -9.2080  -21.2173   20.6994 H   0  0  0  0  0  0  0  0  0  0  0  0
  -10.1083  -22.4740   20.4778 H   0  0  0  0  0  0  0  0  0  0  0  0
  -11.6846  -21.8904   21.8628 H   0  0  0  0  0  0  0  0  0  0  0  0
  -10.6981  -20.1560   22.1500 H   0  0  0  0  0  0  0  0  0  0  0  0
  -10.6898  -20.1697   23.7471 H   0  0  0  0  0  0  0  0  0  0  0  0
   -8.2877  -20.6085   22.3040 H   0  0  0  0  0  0  0  0  0  0  0  0
   -8.1114  -21.1926   23.7587 H   0  0  0  0  0  0  0  0  0  0  0  0
   -7.3941  -22.8465   23.6948 H   0  0  0  0  0  0  0  0  0  0  0  0
   -9.8406  -24.1287   24.5765 H   0  0  0  0  0  0  0  0  0  0  0  0
   -9.9843  -24.1055   26.4130 H   0  0  0  0  0  0  0  0  0  0  0  0
   -9.3968  -22.5273   26.7042 H   0  0  0  0  0  0  0  0  0  0  0  0
  -15.1949  -24.8380   26.8617 H   0  0  0  0  0  0  0  0  0  0  0  0
  -14.3466  -25.9375   28.9503 H   0  0  0  0  0  0  0  0  0  0  0  0
  -11.9931  -25.3286   29.6267 H   0  0  0  0  0  0  0  0  0  0  0  0
  -11.8478  -20.8858   25.1077 H   0  0  0  0  0  0  0  0  0  0  0  0
  -13.0061  -22.1404   24.8443 H   0  0  0  0  0  0  0  0  0  0  0  0
  -11.9415  -23.0077   23.5338 H   0  0  0  0  0  0  0  0  0  0  0  0
  1  2  2  0
  2  3  1  0
  3  4  1  0
  4  5  2  0
  5  6  1  0
  6  7  2  0
  7  8  1  0
  2  9  1  0
  9 10  1  0
 10 11  1  0
 11 12  1  0
 12 13  1  0
 13 14  1  0
 14 15  1  0
 15 16  1  0
 16 17  1  0
 17 18  1  0
 18 19  2  0
 19 20  1  0
 20 21  2  0
 21 22  1  0
 22 23  2  0
 17 24  1  0
 24 25  1  0
  8  4  1  0
 14  9  1  0
 25 15  1  0
 25 11  1  0
 23 18  1  0
  3 26  1  0
  3 27  1  0
  5 28  1  0
  6 29  1  0
  8 30  1  0
 10 31  1  0
 10 32  1  0
 11 33  1  0
 12 34  1  0
 12 35  1  0
 13 36  1  0
 13 37  1  0
 14 38  1  0
 15 39  1  0
 16 40  1  0
 16 41  1  0
 20 42  1  0
 21 43  1  0
 22 44  1  0
 24 45  1  0
 24 46  1  0
 25 47  1  0
M  END
>  <Energy>  (425) 
774.27190671665471

>  <compound_id>  (425) 
5185

>  <target_id>  (425) 
1

>  <reference_id>  (425) 
54

>  <inspiration_ids>  (425) 
[54, 112]

>  <energy_score>  (425) 
730.0199069742388

>  <distance_score>  (425) 
6.072284138719892

>  <path>  (425) 
/opt/xchem-fragalysis-2/maxwin/BulkDock/SCRATCH/511018/C5185-P54/C5185-P54.minimised.mol

>  <scratch_subdir>  (425) 
/opt/xchem-fragalysis-2/maxwin/BulkDock/SCRATCH/511018/C5185-P54

>  <fragmenstein_runtime>  (425) 
17.455580234527588

>  <fragmenstein_outcome>  (425) 
too moved

>  <fragmenstein_mode>  (425) 
expansion

>  <fragmenstein_error>  (425) 


$$$$
C5185-P112
     RDKit          3D

 47 51  0  0  0  0  0  0  0  0999 V2000
  -11.7592  -22.2572   20.7852 O   0  0  0  0  0  0  0  0  0  0  0  0
  -10.9123  -21.9039   21.5637 C   0  0  0  0  0  0  0  0  0  0  0  0
   -9.6536  -21.3520   20.8529 C   0  0  0  0  0  0  0  0  0  0  0  0
   -8.7832  -20.3122   19.6257 C   0  0  0  0  0  0  0  0  0  0  0  0
   -8.8028  -19.9887   18.3081 C   0  0  0  0  0  0  0  0  0  0  0  0
   -8.7232  -18.5659   18.3254 C   0  0  0  0  0  0  0  0  0  0  0  0
   -8.0704  -18.1338   19.3863 N   0  0  0  0  0  0  0  0  0  0  0  0
   -7.8196  -19.3041   19.9940 N   0  0  0  0  0  0  0  0  0  0  0  0
  -10.8602  -22.0312   23.0496 N   0  0  0  0  0  0  0  0  0  0  0  0
  -11.4449  -20.8884   23.6941 C   0  0  0  0  0  0  0  0  0  0  0  0
  -12.4683  -21.1123   25.1190 C   0  0  0  0  0  0  0  0  0  0  0  0
  -13.8452  -21.7154   24.1611 C   0  0  0  0  0  0  0  0  0  0  0  0
  -13.1746  -22.7811   23.3959 C   0  0  0  0  0  0  0  0  0  0  0  0
  -11.7136  -22.6759   23.9301 C   0  0  0  0  0  0  0  0  0  0  0  0
  -11.7099  -23.2971   25.4468 C   0  0  0  0  0  0  0  0  0  0  0  0
  -10.6365  -24.2902   25.9085 C   0  0  0  0  0  0  0  0  0  0  0  0
  -10.8903  -24.3191   27.3004 N   0  0  0  0  0  0  0  0  0  0  0  0
  -11.7296  -25.4557   27.1581 C   0  0  0  0  0  0  0  0  0  0  0  0
  -11.1227  -26.6332   27.3379 N   0  0  0  0  0  0  0  0  0  0  0  0
  -11.8631  -27.7184   27.1481 C   0  0  0  0  0  0  0  0  0  0  0  0
  -13.1356  -27.7112   26.6349 C   0  0  0  0  0  0  0  0  0  0  0  0
  -13.6545  -26.5062   26.3406 C   0  0  0  0  0  0  0  0  0  0  0  0
  -13.0050  -25.3868   26.6552 N   0  0  0  0  0  0  0  0  0  0  0  0
  -11.3025  -22.8888   27.6535 C   0  0  0  0  0  0  0  0  0  0  0  0
  -11.9937  -22.2460   26.4321 C   0  0  0  0  0  0  0  0  0  0  0  0
   -9.8006  -22.0862   20.1147 H   0  0  0  0  0  0  0  0  0  0  0  0
   -8.9796  -21.4577   21.6964 H   0  0  0  0  0  0  0  0  0  0  0  0
   -9.1412  -20.6103   17.5089 H   0  0  0  0  0  0  0  0  0  0  0  0
   -9.0368  -17.8291   17.5968 H   0  0  0  0  0  0  0  0  0  0  0  0
   -7.4323  -19.2017   20.9211 H   0  0  0  0  0  0  0  0  0  0  0  0
  -10.6380  -20.2197   23.8407 H   0  0  0  0  0  0  0  0  0  0  0  0
  -12.0667  -20.4652   22.9340 H   0  0  0  0  0  0  0  0  0  0  0  0
  -13.0529  -21.9851   25.3126 H   0  0  0  0  0  0  0  0  0  0  0  0
  -14.6249  -21.0373   23.8509 H   0  0  0  0  0  0  0  0  0  0  0  0
  -14.5938  -22.3204   24.7523 H   0  0  0  0  0  0  0  0  0  0  0  0
  -13.6844  -23.6991   23.6939 H   0  0  0  0  0  0  0  0  0  0  0  0
  -13.2411  -22.7036   22.3356 H   0  0  0  0  0  0  0  0  0  0  0  0
  -10.8603  -23.2975   23.8739 H   0  0  0  0  0  0  0  0  0  0  0  0
  -12.6702  -23.8217   25.4786 H   0  0  0  0  0  0  0  0  0  0  0  0
  -10.7363  -25.2431   25.3815 H   0  0  0  0  0  0  0  0  0  0  0  0
   -9.5837  -24.1880   25.7839 H   0  0  0  0  0  0  0  0  0  0  0  0
  -11.3892  -28.6290   27.4826 H   0  0  0  0  0  0  0  0  0  0  0  0
  -13.7435  -28.5946   26.5550 H   0  0  0  0  0  0  0  0  0  0  0  0
  -14.6398  -26.3948   25.8992 H   0  0  0  0  0  0  0  0  0  0  0  0
  -10.4601  -22.3283   28.0417 H   0  0  0  0  0  0  0  0  0  0  0  0
  -11.9532  -22.9239   28.5240 H   0  0  0  0  0  0  0  0  0  0  0  0
  -12.9635  -22.4182   26.9159 H   0  0  0  0  0  0  0  0  0  0  0  0
  1  2  2  0
  2  3  1  0
  3  4  1  0
  4  5  2  0
  5  6  1  0
  6  7  2  0
  7  8  1  0
  2  9  1  0
  9 10  1  0
 10 11  1  0
 11 12  1  0
 12 13  1  0
 13 14  1  0
 14 15  1  0
 15 16  1  0
 16 17  1  0
 17 18  1  0
 18 19  2  0
 19 20  1  0
 20 21  2  0
 21 22  1  0
 22 23  2  0
 17 24  1  0
 24 25  1  0
  8  4  1  0
 14  9  1  0
 25 15  1  0
 25 11  1  0
 23 18  1  0
  3 26  1  0
  3 27  1  0
  5 28  1  0
  6 29  1  0
  8 30  1  0
 10 31  1  0
 10 32  1  0
 11 33  1  0
 12 34  1  0
 12 35  1  0
 13 36  1  0
 13 37  1  0
 14 38  1  0
 15 39  1  0
 16 40  1  0
 16 41  1  0
 20 42  1  0
 21 43  1  0
 22 44  1  0
 24 45  1  0
 24 46  1  0
 25 47  1  0
M  END
>  <Energy>  (426) 
570.14394134893666

>  <compound_id>  (426) 
5185

>  <target_id>  (426) 
1

>  <reference_id>  (426) 
112

>  <inspiration_ids>  (426) 
[54, 112]

>  <energy_score>  (426) 
525.8919416065196

>  <distance_score>  (426) 
7.611177558923844

>  <path>  (426) 
/opt/xchem-fragalysis-2/maxwin/BulkDock/SCRATCH/511018/C5185-P112/C5185-P112.minimised.mol

>  <scratch_subdir>  (426) 
/opt/xchem-fragalysis-2/maxwin/BulkDock/SCRATCH/511018/C5185-P112

>  <fragmenstein_runtime>  (426) 
21.135026216506958

>  <fragmenstein_outcome>  (426) 
too moved

>  <fragmenstein_mode>  (426) 
expansion

>  <fragmenstein_error>  (426) 


$$$$
C5187-P54
     RDKit          3D

 43 46  0  0  0  0  0  0  0  0999 V2000
   -8.2424  -20.0609   19.4407 O   0  0  0  0  0  0  0  0  0  0  0  0
   -9.0681  -20.9554   19.3001 C   0  0  0  0  0  0  0  0  0  0  0  0
   -9.2455  -21.3705   17.4158 C   0  0  0  0  0  0  0  0  0  0  0  0
   -9.7408  -22.6549   15.9885 C   0  0  0  0  0  0  0  0  0  0  0  0
  -10.2060  -22.6497   14.5912 C   0  0  0  0  0  0  0  0  0  0  0  0
  -10.2442  -23.9197   13.9739 C   0  0  0  0  0  0  0  0  0  0  0  0
   -9.7679  -24.7622   14.8562 N   0  0  0  0  0  0  0  0  0  0  0  0
   -9.1335  -23.8697   15.6548 N   0  0  0  0  0  0  0  0  0  0  0  0
   -9.8762  -21.7691   20.6996 N   0  0  0  0  0  0  0  0  0  0  0  0
   -9.6130  -21.6043   22.5281 C   0  0  0  0  0  0  0  0  0  0  0  0
  -10.5040  -22.5209   23.9980 C   0  0  0  0  0  0  0  0  0  0  0  0
  -10.7015  -22.5258   25.5359 C   0  0  0  0  0  0  0  0  0  0  0  0
  -11.6390  -21.3616   25.7703 C   0  0  0  0  0  0  0  0  0  0  0  0
  -11.7627  -20.4105   24.2330 C   0  0  0  0  0  0  0  0  0  0  0  0
  -11.9844  -21.2512   22.9405 C   0  0  0  0  0  0  0  0  0  0  0  0
  -11.2065  -21.1175   21.1690 C   0  0  0  0  0  0  0  0  0  0  0  0
  -11.9586  -22.5579   23.5295 N   0  0  0  0  0  0  0  0  0  0  0  0
  -13.1739  -22.8718   24.3178 C   0  0  0  0  0  0  0  0  0  0  0  0
  -14.3027  -22.1542   24.1804 N   0  0  0  0  0  0  0  0  0  0  0  0
  -15.3733  -22.4077   24.9738 C   0  0  0  0  0  0  0  0  0  0  0  0
  -15.4314  -23.4314   25.8806 C   0  0  0  0  0  0  0  0  0  0  0  0
  -14.2825  -24.1491   25.9824 C   0  0  0  0  0  0  0  0  0  0  0  0
  -13.1987  -23.8914   25.2250 N   0  0  0  0  0  0  0  0  0  0  0  0
   -8.1790  -21.1884   17.2253 H   0  0  0  0  0  0  0  0  0  0  0  0
   -9.6135  -20.3969   17.0836 H   0  0  0  0  0  0  0  0  0  0  0  0
  -10.7500  -21.8804   14.1060 H   0  0  0  0  0  0  0  0  0  0  0  0
  -10.6648  -24.2365   13.0312 H   0  0  0  0  0  0  0  0  0  0  0  0
   -8.3002  -24.1378   16.1504 H   0  0  0  0  0  0  0  0  0  0  0  0
  -10.3301  -22.3195   22.2864 H   0  0  0  0  0  0  0  0  0  0  0  0
   -8.6448  -22.0391   22.6973 H   0  0  0  0  0  0  0  0  0  0  0  0
   -9.8508  -23.3655   24.0796 H   0  0  0  0  0  0  0  0  0  0  0  0
   -9.8397  -22.5672   26.2046 H   0  0  0  0  0  0  0  0  0  0  0  0
  -11.1469  -23.4680   25.8687 H   0  0  0  0  0  0  0  0  0  0  0  0
  -11.3074  -20.7119   26.5991 H   0  0  0  0  0  0  0  0  0  0  0  0
  -12.5377  -21.8242   26.1665 H   0  0  0  0  0  0  0  0  0  0  0  0
  -12.5706  -19.7141   24.3467 H   0  0  0  0  0  0  0  0  0  0  0  0
  -10.8978  -19.8075   24.0076 H   0  0  0  0  0  0  0  0  0  0  0  0
  -13.0037  -21.1427   22.8296 H   0  0  0  0  0  0  0  0  0  0  0  0
  -11.7665  -21.9175   20.6566 H   0  0  0  0  0  0  0  0  0  0  0  0
  -11.4467  -20.1981   20.6501 H   0  0  0  0  0  0  0  0  0  0  0  0
  -16.2167  -21.7358   24.8292 H   0  0  0  0  0  0  0  0  0  0  0  0
  -16.3051  -23.6275   26.4858 H   0  0  0  0  0  0  0  0  0  0  0  0
  -14.1831  -24.9713   26.6826 H   0  0  0  0  0  0  0  0  0  0  0  0
  1  2  2  0
  2  3  1  0
  3  4  1  0
  4  5  2  0
  5  6  1  0
  6  7  2  0
  7  8  1  0
  2  9  1  0
  9 10  1  0
 10 11  1  0
 11 12  1  0
 12 13  1  0
 13 14  1  0
 14 15  1  0
 15 16  1  0
 15 17  1  0
 17 18  1  0
 18 19  2  0
 19 20  1  0
 20 21  2  0
 21 22  1  0
 22 23  2  0
  8  4  1  0
 16  9  1  0
 23 18  1  0
 17 11  1  0
  3 24  1  0
  3 25  1  0
  5 26  1  0
  6 27  1  0
  8 28  1  0
 10 29  1  0
 10 30  1  0
 11 31  1  0
 12 32  1  0
 12 33  1  0
 13 34  1  0
 13 35  1  0
 14 36  1  0
 14 37  1  0
 15 38  1  0
 16 39  1  0
 16 40  1  0
 20 41  1  0
 21 42  1  0
 22 43  1  0
M  END
>  <Energy>  (427) 
665.39558832640444

>  <compound_id>  (427) 
5187

>  <target_id>  (427) 
1

>  <reference_id>  (427) 
54

>  <inspiration_ids>  (427) 
[54, 112]

>  <energy_score>  (427) 
608.3887241354262

>  <distance_score>  (427) 
6.3749755404669095

>  <path>  (427) 
/opt/xchem-fragalysis-2/maxwin/BulkDock/SCRATCH/511018/C5187-P54/C5187-P54.minimised.mol

>  <scratch_subdir>  (427) 
/opt/xchem-fragalysis-2/maxwin/BulkDock/SCRATCH/511018/C5187-P54

>  <fragmenstein_runtime>  (427) 
13.80578088760376

>  <fragmenstein_outcome>  (427) 
too moved

>  <fragmenstein_mode>  (427) 
expansion

>  <fragmenstein_error>  (427) 


$$$$
C5187-P112
     RDKit          3D

 43 46  0  0  0  0  0  0  0  0999 V2000
  -11.8021  -24.2168   20.8020 O   0  0  0  0  0  0  0  0  0  0  0  0
  -12.4972  -23.2471   21.0949 C   0  0  0  0  0  0  0  0  0  0  0  0
  -13.5857  -22.9786   19.9052 C   0  0  0  0  0  0  0  0  0  0  0  0
  -14.1139  -24.3757   19.0866 C   0  0  0  0  0  0  0  0  0  0  0  0
  -13.5951  -25.6102   18.7001 C   0  0  0  0  0  0  0  0  0  0  0  0
  -14.6002  -26.2777   17.9841 C   0  0  0  0  0  0  0  0  0  0  0  0
  -15.7410  -25.5977   17.9967 N   0  0  0  0  0  0  0  0  0  0  0  0
  -15.4575  -24.5412   18.7683 N   0  0  0  0  0  0  0  0  0  0  0  0
  -12.4453  -22.3489   22.6320 N   0  0  0  0  0  0  0  0  0  0  0  0
  -11.3962  -22.5020   23.9681 C   0  0  0  0  0  0  0  0  0  0  0  0
  -11.1433  -23.8129   25.4500 C   0  0  0  0  0  0  0  0  0  0  0  0
  -10.5956  -23.8018   26.9089 C   0  0  0  0  0  0  0  0  0  0  0  0
  -11.3627  -22.7793   27.6545 C   0  0  0  0  0  0  0  0  0  0  0  0
  -12.3783  -22.1438   26.7087 C   0  0  0  0  0  0  0  0  0  0  0  0
  -13.2415  -23.0381   25.5807 C   0  0  0  0  0  0  0  0  0  0  0  0
  -13.4578  -22.8765   23.8093 C   0  0  0  0  0  0  0  0  0  0  0  0
  -12.5175  -24.2306   25.7764 N   0  0  0  0  0  0  0  0  0  0  0  0
  -12.9821  -25.4790   25.9457 C   0  0  0  0  0  0  0  0  0  0  0  0
  -14.2873  -25.7014   25.7504 N   0  0  0  0  0  0  0  0  0  0  0  0
  -14.7592  -26.9479   25.8793 C   0  0  0  0  0  0  0  0  0  0  0  0
  -13.9706  -27.9850   26.2685 C   0  0  0  0  0  0  0  0  0  0  0  0
  -12.6554  -27.6651   26.4834 C   0  0  0  0  0  0  0  0  0  0  0  0
  -12.1305  -26.4621   26.2282 N   0  0  0  0  0  0  0  0  0  0  0  0
  -14.5401  -22.5191   20.0795 H   0  0  0  0  0  0  0  0  0  0  0  0
  -13.0975  -22.3576   19.1738 H   0  0  0  0  0  0  0  0  0  0  0  0
  -12.6071  -26.0063   18.8685 H   0  0  0  0  0  0  0  0  0  0  0  0
  -14.5507  -27.2328   17.4785 H   0  0  0  0  0  0  0  0  0  0  0  0
  -16.2232  -23.9219   19.0110 H   0  0  0  0  0  0  0  0  0  0  0  0
  -10.4161  -22.3811   23.4973 H   0  0  0  0  0  0  0  0  0  0  0  0
  -11.6400  -21.5110   24.3835 H   0  0  0  0  0  0  0  0  0  0  0  0
  -10.4948  -24.6001   25.0834 H   0  0  0  0  0  0  0  0  0  0  0  0
   -9.5156  -23.7762   27.0399 H   0  0  0  0  0  0  0  0  0  0  0  0
  -10.7909  -24.7698   27.3887 H   0  0  0  0  0  0  0  0  0  0  0  0
  -10.7409  -22.0203   28.1286 H   0  0  0  0  0  0  0  0  0  0  0  0
  -11.8753  -23.2496   28.4821 H   0  0  0  0  0  0  0  0  0  0  0  0
  -12.9985  -21.8073   27.5132 H   0  0  0  0  0  0  0  0  0  0  0  0
  -11.9596  -21.2736   26.2327 H   0  0  0  0  0  0  0  0  0  0  0  0
  -14.2768  -23.1279   25.8625 H   0  0  0  0  0  0  0  0  0  0  0  0
  -13.8103  -23.8438   23.5351 H   0  0  0  0  0  0  0  0  0  0  0  0
  -14.3027  -22.1836   23.7172 H   0  0  0  0  0  0  0  0  0  0  0  0
  -15.8203  -27.0724   25.6862 H   0  0  0  0  0  0  0  0  0  0  0  0
  -14.3616  -28.9779   26.4390 H   0  0  0  0  0  0  0  0  0  0  0  0
  -11.9567  -28.3816   26.8923 H   0  0  0  0  0  0  0  0  0  0  0  0
  1  2  2  0
  2  3  1  0
  3  4  1  0
  4  5  2  0
  5  6  1  0
  6  7  2  0
  7  8  1  0
  2  9  1  0
  9 10  1  0
 10 11  1  0
 11 12  1  0
 12 13  1  0
 13 14  1  0
 14 15  1  0
 15 16  1  0
 15 17  1  0
 17 18  1  0
 18 19  2  0
 19 20  1  0
 20 21  2  0
 21 22  1  0
 22 23  2  0
  8  4  1  0
 16  9  1  0
 23 18  1  0
 17 11  1  0
  3 24  1  0
  3 25  1  0
  5 26  1  0
  6 27  1  0
  8 28  1  0
 10 29  1  0
 10 30  1  0
 11 31  1  0
 12 32  1  0
 12 33  1  0
 13 34  1  0
 13 35  1  0
 14 36  1  0
 14 37  1  0
 15 38  1  0
 16 39  1  0
 16 40  1  0
 20 41  1  0
 21 42  1  0
 22 43  1  0
M  END
>  <Energy>  (428) 
348.26598190224848

>  <compound_id>  (428) 
5187

>  <target_id>  (428) 
1

>  <reference_id>  (428) 
112

>  <inspiration_ids>  (428) 
[54, 112]

>  <energy_score>  (428) 
291.25911771127164

>  <distance_score>  (428) 
6.537912327530093

>  <path>  (428) 
/opt/xchem-fragalysis-2/maxwin/BulkDock/SCRATCH/511018/C5187-P112/C5187-P112.minimised.mol

>  <scratch_subdir>  (428) 
/opt/xchem-fragalysis-2/maxwin/BulkDock/SCRATCH/511018/C5187-P112

>  <fragmenstein_runtime>  (428) 
30.877686738967896

>  <fragmenstein_outcome>  (428) 
too moved

>  <fragmenstein_mode>  (428) 
expansion

>  <fragmenstein_error>  (428) 


$$$$
C5188-P54
     RDKit          3D

 46 49  0  0  0  0  0  0  0  0999 V2000
  -11.4278  -24.6594   20.6984 O   0  0  0  0  0  0  0  0  0  0  0  0
  -12.4893  -24.1156   20.7346 C   0  0  0  0  0  0  0  0  0  0  0  0
  -13.5954  -24.9758   19.8400 C   0  0  0  0  0  0  0  0  0  0  0  0
  -13.5460  -26.1420   18.8106 C   0  0  0  0  0  0  0  0  0  0  0  0
  -14.5034  -26.4674   17.8580 C   0  0  0  0  0  0  0  0  0  0  0  0
  -13.9697  -27.5400   17.1254 C   0  0  0  0  0  0  0  0  0  0  0  0
  -12.7753  -27.9063   17.5808 N   0  0  0  0  0  0  0  0  0  0  0  0
  -12.5232  -27.0186   18.5554 N   0  0  0  0  0  0  0  0  0  0  0  0
  -12.7881  -22.7143   21.7212 N   0  0  0  0  0  0  0  0  0  0  0  0
  -11.8508  -21.8773   22.5700 C   0  0  0  0  0  0  0  0  0  0  0  0
  -11.2134  -21.9136   24.0168 C   0  0  0  0  0  0  0  0  0  0  0  0
  -11.6776  -22.6724   25.3021 C   0  0  0  0  0  0  0  0  0  0  0  0
  -13.0851  -22.9020   24.8228 C   0  0  0  0  0  0  0  0  0  0  0  0
  -13.3707  -23.1702   23.3123 C   0  0  0  0  0  0  0  0  0  0  0  0
  -10.7260  -23.8371   25.7157 C   0  0  0  0  0  0  0  0  0  0  0  0
  -10.1217  -23.5561   27.0967 C   0  0  0  0  0  0  0  0  0  0  0  0
  -11.2216  -22.9438   27.7649 N   0  0  0  0  0  0  0  0  0  0  0  0
  -12.0415  -23.9369   28.3146 C   0  0  0  0  0  0  0  0  0  0  0  0
  -13.3416  -23.9855   27.9953 N   0  0  0  0  0  0  0  0  0  0  0  0
  -14.0651  -25.0371   28.4175 C   0  0  0  0  0  0  0  0  0  0  0  0
  -13.5416  -26.0658   29.1528 C   0  0  0  0  0  0  0  0  0  0  0  0
  -12.2146  -25.9361   29.4609 C   0  0  0  0  0  0  0  0  0  0  0  0
  -11.4616  -24.8971   29.0614 N   0  0  0  0  0  0  0  0  0  0  0  0
  -11.7694  -22.0259   26.7404 C   0  0  0  0  0  0  0  0  0  0  0  0
  -13.8067  -24.2673   19.0638 H   0  0  0  0  0  0  0  0  0  0  0  0
  -14.2862  -25.3689   20.5589 H   0  0  0  0  0  0  0  0  0  0  0  0
  -15.4526  -25.9771   17.6988 H   0  0  0  0  0  0  0  0  0  0  0  0
  -14.4025  -28.0737   16.2892 H   0  0  0  0  0  0  0  0  0  0  0  0
  -11.6227  -27.0448   19.0312 H   0  0  0  0  0  0  0  0  0  0  0  0
  -10.9922  -21.7644   21.8923 H   0  0  0  0  0  0  0  0  0  0  0  0
  -12.2722  -20.8777   22.5273 H   0  0  0  0  0  0  0  0  0  0  0  0
  -10.1485  -22.0844   23.8435 H   0  0  0  0  0  0  0  0  0  0  0  0
  -11.4016  -20.8580   24.2544 H   0  0  0  0  0  0  0  0  0  0  0  0
  -13.7014  -22.0325   25.0680 H   0  0  0  0  0  0  0  0  0  0  0  0
  -13.5476  -23.7160   25.3975 H   0  0  0  0  0  0  0  0  0  0  0  0
  -13.5877  -24.2280   23.3165 H   0  0  0  0  0  0  0  0  0  0  0  0
  -14.3299  -22.7121   23.3655 H   0  0  0  0  0  0  0  0  0  0  0  0
   -9.9164  -23.9093   25.0108 H   0  0  0  0  0  0  0  0  0  0  0  0
  -11.2489  -24.7977   25.7987 H   0  0  0  0  0  0  0  0  0  0  0  0
   -9.3253  -22.8149   27.0421 H   0  0  0  0  0  0  0  0  0  0  0  0
   -9.6916  -24.4528   27.5574 H   0  0  0  0  0  0  0  0  0  0  0  0
  -15.1151  -25.0186   28.1374 H   0  0  0  0  0  0  0  0  0  0  0  0
  -14.1372  -26.9048   29.4823 H   0  0  0  0  0  0  0  0  0  0  0  0
  -11.6950  -26.6826   30.0535 H   0  0  0  0  0  0  0  0  0  0  0  0
  -11.2466  -21.0735   26.8256 H   0  0  0  0  0  0  0  0  0  0  0  0
  -12.7807  -21.8673   27.0041 H   0  0  0  0  0  0  0  0  0  0  0  0
  1  2  2  0
  2  3  1  0
  3  4  1  0
  4  5  2  0
  5  6  1  0
  6  7  2  0
  7  8  1  0
  2  9  1  0
  9 10  1  0
 10 11  1  0
 11 12  1  0
 12 13  1  0
 13 14  1  0
 12 15  1  0
 15 16  1  0
 16 17  1  0
 17 18  1  0
 18 19  2  0
 19 20  1  0
 20 21  2  0
 21 22  1  0
 22 23  2  0
 17 24  1  0
  8  4  1  0
 14  9  1  0
 23 18  1  0
 24 12  1  0
  3 25  1  0
  3 26  1  0
  5 27  1  0
  6 28  1  0
  8 29  1  0
 10 30  1  0
 10 31  1  0
 11 32  1  0
 11 33  1  0
 13 34  1  0
 13 35  1  0
 14 36  1  0
 14 37  1  0
 15 38  1  0
 15 39  1  0
 16 40  1  0
 16 41  1  0
 20 42  1  0
 21 43  1  0
 22 44  1  0
 24 45  1  0
 24 46  1  0
M  END
>  <Energy>  (429) 
225.79877236083223

>  <compound_id>  (429) 
5188

>  <target_id>  (429) 
1

>  <reference_id>  (429) 
54

>  <inspiration_ids>  (429) 
[54, 112]

>  <energy_score>  (429) 
204.4825788732614

>  <distance_score>  (429) 
6.114581648121411

>  <path>  (429) 
/opt/xchem-fragalysis-2/maxwin/BulkDock/SCRATCH/511018/C5188-P54/C5188-P54.minimised.mol

>  <scratch_subdir>  (429) 
/opt/xchem-fragalysis-2/maxwin/BulkDock/SCRATCH/511018/C5188-P54

>  <fragmenstein_runtime>  (429) 
22.89283514022827

>  <fragmenstein_outcome>  (429) 
too moved

>  <fragmenstein_mode>  (429) 
expansion

>  <fragmenstein_error>  (429) 


$$$$
C5188-P112
     RDKit          3D

 46 49  0  0  0  0  0  0  0  0999 V2000
  -11.8185  -22.6425   20.8576 O   0  0  0  0  0  0  0  0  0  0  0  0
  -10.9408  -22.0868   21.4558 C   0  0  0  0  0  0  0  0  0  0  0  0
   -9.8536  -21.3651   20.6394 C   0  0  0  0  0  0  0  0  0  0  0  0
   -8.9296  -20.2178   19.5681 C   0  0  0  0  0  0  0  0  0  0  0  0
   -8.6608  -19.8718   18.2751 C   0  0  0  0  0  0  0  0  0  0  0  0
   -7.6545  -18.8286   18.2753 C   0  0  0  0  0  0  0  0  0  0  0  0
   -7.1983  -18.5041   19.4616 N   0  0  0  0  0  0  0  0  0  0  0  0
   -7.8451  -19.3617   20.2226 N   0  0  0  0  0  0  0  0  0  0  0  0
  -10.6511  -22.0631   22.8605 N   0  0  0  0  0  0  0  0  0  0  0  0
  -11.2175  -22.7371   23.8934 C   0  0  0  0  0  0  0  0  0  0  0  0
  -11.2139  -23.4184   25.2887 C   0  0  0  0  0  0  0  0  0  0  0  0
  -12.2827  -22.4909   25.7329 C   0  0  0  0  0  0  0  0  0  0  0  0
  -12.4006  -21.2421   24.7337 C   0  0  0  0  0  0  0  0  0  0  0  0
  -11.3299  -20.9615   23.5065 C   0  0  0  0  0  0  0  0  0  0  0  0
  -11.9507  -22.2814   27.1867 C   0  0  0  0  0  0  0  0  0  0  0  0
  -12.0059  -23.7196   27.6166 C   0  0  0  0  0  0  0  0  0  0  0  0
  -13.0515  -24.3287   26.7396 N   0  0  0  0  0  0  0  0  0  0  0  0
  -13.1315  -25.6276   26.3361 C   0  0  0  0  0  0  0  0  0  0  0  0
  -14.3483  -25.9263   25.8365 N   0  0  0  0  0  0  0  0  0  0  0  0
  -14.7867  -27.1666   25.9140 C   0  0  0  0  0  0  0  0  0  0  0  0
  -13.9965  -28.1223   26.4440 C   0  0  0  0  0  0  0  0  0  0  0  0
  -12.6907  -27.7626   26.7320 C   0  0  0  0  0  0  0  0  0  0  0  0
  -12.2204  -26.5255   26.6500 N   0  0  0  0  0  0  0  0  0  0  0  0
  -13.4704  -23.4057   25.6879 C   0  0  0  0  0  0  0  0  0  0  0  0
  -10.7255  -20.7062   20.6132 H   0  0  0  0  0  0  0  0  0  0  0  0
   -9.1467  -21.3375   21.4591 H   0  0  0  0  0  0  0  0  0  0  0  0
   -9.0806  -20.4172   17.4603 H   0  0  0  0  0  0  0  0  0  0  0  0
   -7.1860  -18.2765   17.4735 H   0  0  0  0  0  0  0  0  0  0  0  0
   -7.7940  -19.2731   21.2285 H   0  0  0  0  0  0  0  0  0  0  0  0
  -12.1854  -22.9452   23.4113 H   0  0  0  0  0  0  0  0  0  0  0  0
  -10.2584  -23.2207   23.8893 H   0  0  0  0  0  0  0  0  0  0  0  0
  -11.2679  -24.5090   25.4343 H   0  0  0  0  0  0  0  0  0  0  0  0
  -10.3391  -23.5625   25.9244 H   0  0  0  0  0  0  0  0  0  0  0  0
  -13.3946  -21.2340   24.2869 H   0  0  0  0  0  0  0  0  0  0  0  0
  -12.1934  -20.4670   25.3805 H   0  0  0  0  0  0  0  0  0  0  0  0
  -10.5914  -20.2364   23.7456 H   0  0  0  0  0  0  0  0  0  0  0  0
  -11.9220  -20.5205   22.7264 H   0  0  0  0  0  0  0  0  0  0  0  0
  -12.6524  -21.6827   27.7465 H   0  0  0  0  0  0  0  0  0  0  0  0
  -10.9950  -21.8519   27.4479 H   0  0  0  0  0  0  0  0  0  0  0  0
  -11.0492  -24.2567   27.6082 H   0  0  0  0  0  0  0  0  0  0  0  0
  -12.2461  -23.5590   28.6417 H   0  0  0  0  0  0  0  0  0  0  0  0
  -15.8019  -27.3497   25.5836 H   0  0  0  0  0  0  0  0  0  0  0  0
  -14.3796  -29.1206   26.6052 H   0  0  0  0  0  0  0  0  0  0  0  0
  -11.9712  -28.4758   27.1121 H   0  0  0  0  0  0  0  0  0  0  0  0
  -13.6380  -23.8718   24.7108 H   0  0  0  0  0  0  0  0  0  0  0  0
  -14.4325  -22.9385   25.8306 H   0  0  0  0  0  0  0  0  0  0  0  0
  1  2  2  0
  2  3  1  0
  3  4  1  0
  4  5  2  0
  5  6  1  0
  6  7  2  0
  7  8  1  0
  2  9  1  0
  9 10  1  0
 10 11  1  0
 11 12  1  0
 12 13  1  0
 13 14  1  0
 12 15  1  0
 15 16  1  0
 16 17  1  0
 17 18  1  0
 18 19  2  0
 19 20  1  0
 20 21  2  0
 21 22  1  0
 22 23  2  0
 17 24  1  0
  8  4  1  0
 14  9  1  0
 23 18  1  0
 24 12  1  0
  3 25  1  0
  3 26  1  0
  5 27  1  0
  6 28  1  0
  8 29  1  0
 10 30  1  0
 10 31  1  0
 11 32  1  0
 11 33  1  0
 13 34  1  0
 13 35  1  0
 14 36  1  0
 14 37  1  0
 15 38  1  0
 15 39  1  0
 16 40  1  0
 16 41  1  0
 20 42  1  0
 21 43  1  0
 22 44  1  0
 24 45  1  0
 24 46  1  0
M  END
>  <Energy>  (430) 
368.06101132140725

>  <compound_id>  (430) 
5188

>  <target_id>  (430) 
1

>  <reference_id>  (430) 
112

>  <inspiration_ids>  (430) 
[54, 112]

>  <energy_score>  (430) 
346.74481783384044

>  <distance_score>  (430) 
7.802592827994569

>  <path>  (430) 
/opt/xchem-fragalysis-2/maxwin/BulkDock/SCRATCH/511018/C5188-P112/C5188-P112.minimised.mol

>  <scratch_subdir>  (430) 
/opt/xchem-fragalysis-2/maxwin/BulkDock/SCRATCH/511018/C5188-P112

>  <fragmenstein_runtime>  (430) 
23.994651079177856

>  <fragmenstein_outcome>  (430) 
too moved

>  <fragmenstein_mode>  (430) 
expansion

>  <fragmenstein_error>  (430) 


$$$$
C5189-P54
     RDKit          3D

 43 46  0  0  0  0  0  0  0  0999 V2000
  -18.1507  -26.8397   23.2164 O   0  0  0  0  0  0  0  0  0  0  0  0
  -16.9777  -26.6707   23.4400 C   0  0  0  0  0  0  0  0  0  0  0  0
  -15.9515  -27.2017   22.4224 C   0  0  0  0  0  0  0  0  0  0  0  0
  -16.0499  -26.8456   20.9537 C   0  0  0  0  0  0  0  0  0  0  0  0
  -16.5390  -27.5307   19.8576 C   0  0  0  0  0  0  0  0  0  0  0  0
  -16.1568  -26.7695   18.7338 C   0  0  0  0  0  0  0  0  0  0  0  0
  -15.4790  -25.6734   19.0739 N   0  0  0  0  0  0  0  0  0  0  0  0
  -15.4375  -25.7376   20.4179 N   0  0  0  0  0  0  0  0  0  0  0  0
  -16.3038  -26.0991   24.6172 N   0  0  0  0  0  0  0  0  0  0  0  0
  -16.8695  -25.4530   25.8465 C   0  0  0  0  0  0  0  0  0  0  0  0
  -15.9133  -25.3440   27.0232 C   0  0  0  0  0  0  0  0  0  0  0  0
  -14.8729  -24.2471   26.8648 C   0  0  0  0  0  0  0  0  0  0  0  0
  -13.6580  -24.7031   26.0833 C   0  0  0  0  0  0  0  0  0  0  0  0
  -13.0014  -25.7846   26.8076 N   0  0  0  0  0  0  0  0  0  0  0  0
  -12.0597  -25.2620   27.7092 C   0  0  0  0  0  0  0  0  0  0  0  0
  -12.0687  -25.6232   29.0016 N   0  0  0  0  0  0  0  0  0  0  0  0
  -11.2233  -24.9786   29.8329 C   0  0  0  0  0  0  0  0  0  0  0  0
  -10.3558  -23.9965   29.4365 C   0  0  0  0  0  0  0  0  0  0  0  0
  -10.3845  -23.7174   28.1001 C   0  0  0  0  0  0  0  0  0  0  0  0
  -11.2007  -24.3424   27.2330 N   0  0  0  0  0  0  0  0  0  0  0  0
  -13.8585  -26.8867   27.2657 C   0  0  0  0  0  0  0  0  0  0  0  0
  -15.3707  -26.7319   26.9823 C   0  0  0  0  0  0  0  0  0  0  0  0
  -15.9664  -27.2006   25.6264 C   0  0  0  0  0  0  0  0  0  0  0  0
  -14.9481  -26.9495   22.7747 H   0  0  0  0  0  0  0  0  0  0  0  0
  -16.0722  -28.2902   22.4757 H   0  0  0  0  0  0  0  0  0  0  0  0
  -17.0737  -28.4699   19.8642 H   0  0  0  0  0  0  0  0  0  0  0  0
  -16.3414  -26.9724   17.6868 H   0  0  0  0  0  0  0  0  0  0  0  0
  -14.9679  -24.9981   20.9376 H   0  0  0  0  0  0  0  0  0  0  0  0
  -17.1747  -24.4497   25.5196 H   0  0  0  0  0  0  0  0  0  0  0  0
  -17.8282  -25.9306   26.1162 H   0  0  0  0  0  0  0  0  0  0  0  0
  -16.4889  -25.1567   27.9365 H   0  0  0  0  0  0  0  0  0  0  0  0
  -14.5475  -23.9496   27.8671 H   0  0  0  0  0  0  0  0  0  0  0  0
  -15.3162  -23.3729   26.3792 H   0  0  0  0  0  0  0  0  0  0  0  0
  -13.9438  -25.0824   25.1007 H   0  0  0  0  0  0  0  0  0  0  0  0
  -13.0172  -23.8380   25.8767 H   0  0  0  0  0  0  0  0  0  0  0  0
  -11.2692  -25.2885   30.8717 H   0  0  0  0  0  0  0  0  0  0  0  0
   -9.6979  -23.4862   30.1252 H   0  0  0  0  0  0  0  0  0  0  0  0
   -9.7452  -22.9542   27.6679 H   0  0  0  0  0  0  0  0  0  0  0  0
  -13.4989  -27.8122   26.8003 H   0  0  0  0  0  0  0  0  0  0  0  0
  -13.7659  -27.0487   28.3461 H   0  0  0  0  0  0  0  0  0  0  0  0
  -15.8741  -27.3496   27.7406 H   0  0  0  0  0  0  0  0  0  0  0  0
  -15.2421  -27.8532   25.1291 H   0  0  0  0  0  0  0  0  0  0  0  0
  -16.8532  -27.8411   25.7751 H   0  0  0  0  0  0  0  0  0  0  0  0
  1  2  2  0
  2  3  1  0
  3  4  1  0
  4  5  2  0
  5  6  1  0
  6  7  2  0
  7  8  1  0
  2  9  1  0
  9 10  1  0
 10 11  1  0
 11 12  1  0
 12 13  1  0
 13 14  1  0
 14 15  1  0
 15 16  2  0
 16 17  1  0
 17 18  2  0
 18 19  1  0
 19 20  2  0
 14 21  1  0
 21 22  1  0
 22 23  1  0
  8  4  1  0
 23  9  1  0
 22 11  1  0
 20 15  1  0
  3 24  1  0
  3 25  1  0
  5 26  1  0
  6 27  1  0
  8 28  1  0
 10 29  1  0
 10 30  1  0
 11 31  1  0
 12 32  1  0
 12 33  1  0
 13 34  1  0
 13 35  1  0
 17 36  1  0
 18 37  1  0
 19 38  1  0
 21 39  1  0
 21 40  1  0
 22 41  1  0
 23 42  1  0
 23 43  1  0
M  END
>  <Energy>  (431) 
35.21378628285261

>  <compound_id>  (431) 
5189

>  <target_id>  (431) 
1

>  <reference_id>  (431) 
54

>  <inspiration_ids>  (431) 
[54, 112]

>  <energy_score>  (431) 
45.13810814755146

>  <distance_score>  (431) 
7.8581123386522185

>  <path>  (431) 
/opt/xchem-fragalysis-2/maxwin/BulkDock/SCRATCH/511018/C5189-P54/C5189-P54.minimised.mol

>  <scratch_subdir>  (431) 
/opt/xchem-fragalysis-2/maxwin/BulkDock/SCRATCH/511018/C5189-P54

>  <fragmenstein_runtime>  (431) 
14.086908102035522

>  <fragmenstein_outcome>  (431) 
too moved

>  <fragmenstein_mode>  (431) 
expansion

>  <fragmenstein_error>  (431) 


$$$$
C5189-P112
     RDKit          3D

 43 46  0  0  0  0  0  0  0  0999 V2000
   -9.5146  -25.5111   20.8342 O   0  0  0  0  0  0  0  0  0  0  0  0
   -8.6041  -24.7012   20.6795 C   0  0  0  0  0  0  0  0  0  0  0  0
   -7.3523  -24.5686   18.9683 C   0  0  0  0  0  0  0  0  0  0  0  0
   -8.1136  -24.6787   16.9837 C   0  0  0  0  0  0  0  0  0  0  0  0
   -8.8733  -26.0038   16.1741 C   0  0  0  0  0  0  0  0  0  0  0  0
   -9.6723  -25.5804   15.0693 C   0  0  0  0  0  0  0  0  0  0  0  0
   -9.6884  -24.2715   14.8471 N   0  0  0  0  0  0  0  0  0  0  0  0
   -8.8777  -23.6396   15.7786 N   0  0  0  0  0  0  0  0  0  0  0  0
   -8.2120  -23.6260   22.1130 N   0  0  0  0  0  0  0  0  0  0  0  0
   -8.8009  -23.5634   23.7799 C   0  0  0  0  0  0  0  0  0  0  0  0
  -10.2919  -23.3610   24.3368 C   0  0  0  0  0  0  0  0  0  0  0  0
  -11.1333  -23.6416   25.8565 C   0  0  0  0  0  0  0  0  0  0  0  0
  -12.2994  -22.7001   25.9463 C   0  0  0  0  0  0  0  0  0  0  0  0
  -12.7259  -22.4085   24.5781 N   0  0  0  0  0  0  0  0  0  0  0  0
  -14.0577  -22.6934   24.3647 C   0  0  0  0  0  0  0  0  0  0  0  0
  -14.8441  -21.8115   23.7461 N   0  0  0  0  0  0  0  0  0  0  0  0
  -16.1740  -22.0023   23.7950 C   0  0  0  0  0  0  0  0  0  0  0  0
  -16.7611  -23.1152   24.3253 C   0  0  0  0  0  0  0  0  0  0  0  0
  -15.8802  -24.0385   24.8123 C   0  0  0  0  0  0  0  0  0  0  0  0
  -14.5401  -23.8579   24.8516 N   0  0  0  0  0  0  0  0  0  0  0  0
  -11.8900  -21.4846   23.7754 C   0  0  0  0  0  0  0  0  0  0  0  0
  -10.7450  -22.3115   23.2127 C   0  0  0  0  0  0  0  0  0  0  0  0
   -9.2888  -21.9646   22.0871 C   0  0  0  0  0  0  0  0  0  0  0  0
   -6.5050  -23.8952   18.8898 H   0  0  0  0  0  0  0  0  0  0  0  0
   -6.5347  -25.3410   19.1310 H   0  0  0  0  0  0  0  0  0  0  0  0
   -8.7494  -27.0372   16.4788 H   0  0  0  0  0  0  0  0  0  0  0  0
  -10.2451  -26.2200   14.4114 H   0  0  0  0  0  0  0  0  0  0  0  0
   -8.8185  -22.6344   15.8890 H   0  0  0  0  0  0  0  0  0  0  0  0
   -8.2196  -24.0976   24.5625 H   0  0  0  0  0  0  0  0  0  0  0  0
   -8.2576  -22.6339   23.8245 H   0  0  0  0  0  0  0  0  0  0  0  0
  -10.2480  -24.3998   24.6167 H   0  0  0  0  0  0  0  0  0  0  0  0
  -10.4871  -23.6114   26.7427 H   0  0  0  0  0  0  0  0  0  0  0  0
  -11.5344  -24.6714   25.9141 H   0  0  0  0  0  0  0  0  0  0  0  0
  -12.0039  -21.7882   26.4729 H   0  0  0  0  0  0  0  0  0  0  0  0
  -13.0482  -23.1785   26.5731 H   0  0  0  0  0  0  0  0  0  0  0  0
  -16.7703  -21.1995   23.3746 H   0  0  0  0  0  0  0  0  0  0  0  0
  -17.8302  -23.2571   24.3411 H   0  0  0  0  0  0  0  0  0  0  0  0
  -16.2337  -24.9832   25.2107 H   0  0  0  0  0  0  0  0  0  0  0  0
  -11.5630  -20.6518   24.3730 H   0  0  0  0  0  0  0  0  0  0  0  0
  -12.4074  -21.1000   22.9156 H   0  0  0  0  0  0  0  0  0  0  0  0
  -11.3813  -22.7289   22.4216 H   0  0  0  0  0  0  0  0  0  0  0  0
   -8.7419  -21.1345   22.5100 H   0  0  0  0  0  0  0  0  0  0  0  0
   -9.7031  -21.8269   21.0816 H   0  0  0  0  0  0  0  0  0  0  0  0
  1  2  2  0
  2  3  1  0
  3  4  1  0
  4  5  2  0
  5  6  1  0
  6  7  2  0
  7  8  1  0
  2  9  1  0
  9 10  1  0
 10 11  1  0
 11 12  1  0
 12 13  1  0
 13 14  1  0
 14 15  1  0
 15 16  2  0
 16 17  1  0
 17 18  2  0
 18 19  1  0
 19 20  2  0
 14 21  1  0
 21 22  1  0
 22 23  1  0
  8  4  1  0
 23  9  1  0
 22 11  1  0
 20 15  1  0
  3 24  1  0
  3 25  1  0
  5 26  1  0
  6 27  1  0
  8 28  1  0
 10 29  1  0
 10 30  1  0
 11 31  1  0
 12 32  1  0
 12 33  1  0
 13 34  1  0
 13 35  1  0
 17 36  1  0
 18 37  1  0
 19 38  1  0
 21 39  1  0
 21 40  1  0
 22 41  1  0
 23 42  1  0
 23 43  1  0
M  END
>  <Energy>  (432) 
622.64330217848374

>  <compound_id>  (432) 
5189

>  <target_id>  (432) 
1

>  <reference_id>  (432) 
112

>  <inspiration_ids>  (432) 
[54, 112]

>  <energy_score>  (432) 
632.5676240431717

>  <distance_score>  (432) 
6.904639064071315

>  <path>  (432) 
/opt/xchem-fragalysis-2/maxwin/BulkDock/SCRATCH/511018/C5189-P112/C5189-P112.minimised.mol

>  <scratch_subdir>  (432) 
/opt/xchem-fragalysis-2/maxwin/BulkDock/SCRATCH/511018/C5189-P112

>  <fragmenstein_runtime>  (432) 
13.87477707862854

>  <fragmenstein_outcome>  (432) 
too moved

>  <fragmenstein_mode>  (432) 
expansion

>  <fragmenstein_error>  (432) 


$$$$
C5209-P60
     RDKit          3D

 42 43  0  0  0  0  0  0  0  0999 V2000
  -14.2993  -24.4730   17.1257 C   0  0  0  0  0  0  0  0  0  0  0  0
  -13.4583  -25.6033   17.1722 N   0  0  0  0  0  0  0  0  0  0  0  0
  -13.4635  -25.1983   18.9578 C   0  0  0  0  0  0  0  0  0  0  0  0
  -12.4492  -24.3971   20.3511 C   0  0  0  0  0  0  0  0  0  0  0  0
  -10.9579  -24.0145   20.7946 N   0  0  0  0  0  0  0  0  0  0  0  0
  -10.3041  -22.6375   21.0360 C   0  0  0  0  0  0  0  0  0  0  0  0
  -10.7797  -21.5288   20.9886 O   0  0  0  0  0  0  0  0  0  0  0  0
   -8.7297  -22.6408   21.3968 C   0  0  0  0  0  0  0  0  0  0  0  0
   -7.8161  -21.4395   21.0239 N   0  0  0  0  0  0  0  0  0  0  0  0
   -7.9717  -20.4207   20.1021 C   0  0  0  0  0  0  0  0  0  0  0  0
   -6.8123  -19.6643   20.0896 C   0  0  0  0  0  0  0  0  0  0  0  0
   -5.9783  -20.2906   21.0232 C   0  0  0  0  0  0  0  0  0  0  0  0
   -6.5597  -21.3627   21.5852 N   0  0  0  0  0  0  0  0  0  0  0  0
  -13.7453  -26.9728   16.9728 C   0  0  0  0  0  0  0  0  0  0  0  0
  -14.7942  -27.5355   16.8054 O   0  0  0  0  0  0  0  0  0  0  0  0
  -12.5628  -27.8468   16.8355 C   0  0  0  0  0  0  0  0  0  0  0  0
  -11.5307  -27.3036   16.0337 C   0  0  0  0  0  0  0  0  0  0  0  0
  -10.7364  -28.1176   15.2229 C   0  0  0  0  0  0  0  0  0  0  0  0
  -10.9757  -29.4794   15.2622 C   0  0  0  0  0  0  0  0  0  0  0  0
  -10.1046  -30.4605   14.5229 C   0  0  0  0  0  0  0  0  0  0  0  0
  -10.4389  -31.8044   14.9117 N   0  0  0  0  0  0  0  0  0  0  0  0
   -9.2847  -30.0521   13.7528 O   0  0  0  0  0  0  0  0  0  0  0  0
  -11.9668  -30.0645   16.0013 N   0  0  0  0  0  0  0  0  0  0  0  0
  -12.7589  -29.2203   16.7167 C   0  0  0  0  0  0  0  0  0  0  0  0
  -13.7582  -23.6255   17.4269 H   0  0  0  0  0  0  0  0  0  0  0  0
  -15.3602  -24.6216   17.2580 H   0  0  0  0  0  0  0  0  0  0  0  0
  -14.3600  -24.2943   16.0383 H   0  0  0  0  0  0  0  0  0  0  0  0
  -14.0464  -25.9993   19.4062 H   0  0  0  0  0  0  0  0  0  0  0  0
  -14.1169  -24.3563   19.0577 H   0  0  0  0  0  0  0  0  0  0  0  0
  -12.9569  -24.6959   21.2778 H   0  0  0  0  0  0  0  0  0  0  0  0
  -12.7513  -23.3687   20.2490 H   0  0  0  0  0  0  0  0  0  0  0  0
  -10.2850  -24.7461   20.9994 H   0  0  0  0  0  0  0  0  0  0  0  0
   -8.2284  -23.5183   20.9815 H   0  0  0  0  0  0  0  0  0  0  0  0
   -8.6599  -22.6731   22.4907 H   0  0  0  0  0  0  0  0  0  0  0  0
   -8.8866  -20.3156   19.5386 H   0  0  0  0  0  0  0  0  0  0  0  0
   -6.6101  -18.7940   19.4818 H   0  0  0  0  0  0  0  0  0  0  0  0
   -4.9719  -20.0247   21.3194 H   0  0  0  0  0  0  0  0  0  0  0  0
  -11.4106  -26.2288   15.9324 H   0  0  0  0  0  0  0  0  0  0  0  0
   -9.9505  -27.7028   14.5992 H   0  0  0  0  0  0  0  0  0  0  0  0
  -11.1290  -31.7697   15.6977 H   0  0  0  0  0  0  0  0  0  0  0  0
  -11.2894  -31.7810   15.5205 H   0  0  0  0  0  0  0  0  0  0  0  0
  -13.6474  -29.6952   17.1273 H   0  0  0  0  0  0  0  0  0  0  0  0
  1  2  1  0
  2  3  1  0
  3  4  1  0
  4  5  1  0
  5  6  1  0
  6  7  2  0
  6  8  1  0
  8  9  1  0
  9 10  1  0
 10 11  2  0
 11 12  1  0
 12 13  2  0
  2 14  1  0
 14 15  2  0
 14 16  1  0
 16 17  2  0
 17 18  1  0
 18 19  2  0
 19 20  1  0
 20 21  1  0
 20 22  2  0
 19 23  1  0
 23 24  2  0
 13  9  1  0
 24 16  1  0
  1 25  1  0
  1 26  1  0
  1 27  1  0
  3 28  1  0
  3 29  1  0
  4 30  1  0
  4 31  1  0
  5 32  1  0
  8 33  1  0
  8 34  1  0
 10 35  1  0
 11 36  1  0
 12 37  1  0
 17 38  1  0
 18 39  1  0
 21 40  1  0
 21 41  1  0
 24 42  1  0
M  END
>  <Energy>  (433) 
467.3525301596693

>  <compound_id>  (433) 
5209

>  <target_id>  (433) 
1

>  <reference_id>  (433) 
60

>  <inspiration_ids>  (433) 
[60, 112]

>  <energy_score>  (433) 
352.02175567673316

>  <distance_score>  (433) 
16.554773567690305

>  <path>  (433) 
/opt/xchem-fragalysis-2/maxwin/BulkDock/SCRATCH/511018/C5209-P60/C5209-P60.minimised.mol

>  <scratch_subdir>  (433) 
/opt/xchem-fragalysis-2/maxwin/BulkDock/SCRATCH/511018/C5209-P60

>  <fragmenstein_runtime>  (433) 
25.632811069488525

>  <fragmenstein_outcome>  (433) 
too moved

>  <fragmenstein_mode>  (433) 
expansion

>  <fragmenstein_error>  (433) 


$$$$
C5209-P112
     RDKit          3D

 42 43  0  0  0  0  0  0  0  0999 V2000
   -3.0030   -9.8745    2.9688 C   0  0  0  0  0  0  0  0  0  0  0  0
   -3.5599  -10.9651    3.8073 N   0  0  0  0  0  0  0  0  0  0  0  0
   -2.1056  -10.8777    4.4707 C   0  0  0  0  0  0  0  0  0  0  0  0
   -1.7492   -9.6611    5.4367 C   0  0  0  0  0  0  0  0  0  0  0  0
   -0.3616   -9.5052    5.9320 N   0  0  0  0  0  0  0  0  0  0  0  0
    0.2467   -8.4691    6.7973 C   0  0  0  0  0  0  0  0  0  0  0  0
   -0.2174   -7.4565    7.2462 O   0  0  0  0  0  0  0  0  0  0  0  0
    1.7479   -8.7985    7.0755 C   0  0  0  0  0  0  0  0  0  0  0  0
    2.4727   -7.9903    8.0933 N   0  0  0  0  0  0  0  0  0  0  0  0
    2.6192   -6.6255    8.1659 C   0  0  0  0  0  0  0  0  0  0  0  0
    3.5130   -6.3670    9.1836 C   0  0  0  0  0  0  0  0  0  0  0  0
    3.9006   -7.6341    9.6446 C   0  0  0  0  0  0  0  0  0  0  0  0
    3.3138   -8.6215    8.9589 N   0  0  0  0  0  0  0  0  0  0  0  0
   -3.8810  -12.3344    3.4784 C   0  0  0  0  0  0  0  0  0  0  0  0
   -3.6930  -12.9595    2.4651 O   0  0  0  0  0  0  0  0  0  0  0  0
   -4.6816  -13.1320    4.4987 C   0  0  0  0  0  0  0  0  0  0  0  0
   -5.4738  -12.5628    5.5044 C   0  0  0  0  0  0  0  0  0  0  0  0
   -6.3282  -13.3674    6.2814 C   0  0  0  0  0  0  0  0  0  0  0  0
   -6.3582  -14.7317    6.0428 C   0  0  0  0  0  0  0  0  0  0  0  0
   -7.2490  -15.6561    6.8293 C   0  0  0  0  0  0  0  0  0  0  0  0
   -7.0734  -17.0132    6.3821 N   0  0  0  0  0  0  0  0  0  0  0  0
   -7.9522  -15.2011    7.6835 O   0  0  0  0  0  0  0  0  0  0  0  0
   -5.6101  -15.3586    5.0873 N   0  0  0  0  0  0  0  0  0  0  0  0
   -4.8246  -14.5279    4.3317 C   0  0  0  0  0  0  0  0  0  0  0  0
   -3.0245   -8.8878    3.4335 H   0  0  0  0  0  0  0  0  0  0  0  0
   -3.7725   -9.7718    2.1871 H   0  0  0  0  0  0  0  0  0  0  0  0
   -2.1198  -10.1034    2.3560 H   0  0  0  0  0  0  0  0  0  0  0  0
   -2.0639  -11.7786    5.0910 H   0  0  0  0  0  0  0  0  0  0  0  0
   -1.2922  -11.0971    3.7576 H   0  0  0  0  0  0  0  0  0  0  0  0
   -1.9746   -8.6859    5.0027 H   0  0  0  0  0  0  0  0  0  0  0  0
   -2.3906   -9.7355    6.3151 H   0  0  0  0  0  0  0  0  0  0  0  0
    0.3494  -10.1856    5.6765 H   0  0  0  0  0  0  0  0  0  0  0  0
    1.8214   -9.8409    7.4044 H   0  0  0  0  0  0  0  0  0  0  0  0
    2.3127   -8.6696    6.1458 H   0  0  0  0  0  0  0  0  0  0  0  0
    2.0654   -5.9679    7.5106 H   0  0  0  0  0  0  0  0  0  0  0  0
    3.8367   -5.3990    9.5359 H   0  0  0  0  0  0  0  0  0  0  0  0
    4.5895   -7.8864   10.4407 H   0  0  0  0  0  0  0  0  0  0  0  0
   -5.4682  -11.4867    5.6634 H   0  0  0  0  0  0  0  0  0  0  0  0
   -6.9726  -12.9240    7.0323 H   0  0  0  0  0  0  0  0  0  0  0  0
   -6.2871  -17.0457    5.6949 H   0  0  0  0  0  0  0  0  0  0  0  0
   -6.4619  -17.0156    5.5348 H   0  0  0  0  0  0  0  0  0  0  0  0
   -4.2804  -15.0371    3.5359 H   0  0  0  0  0  0  0  0  0  0  0  0
  1  2  1  0
  2  3  1  0
  3  4  1  0
  4  5  1  0
  5  6  1  0
  6  7  2  0
  6  8  1  0
  8  9  1  0
  9 10  1  0
 10 11  2  0
 11 12  1  0
 12 13  2  0
  2 14  1  0
 14 15  2  0
 14 16  1  0
 16 17  2  0
 17 18  1  0
 18 19  2  0
 19 20  1  0
 20 21  1  0
 20 22  2  0
 19 23  1  0
 23 24  2  0
 13  9  1  0
 24 16  1  0
  1 25  1  0
  1 26  1  0
  1 27  1  0
  3 28  1  0
  3 29  1  0
  4 30  1  0
  4 31  1  0
  5 32  1  0
  8 33  1  0
  8 34  1  0
 10 35  1  0
 11 36  1  0
 12 37  1  0
 17 38  1  0
 18 39  1  0
 21 40  1  0
 21 41  1  0
 24 42  1  0
M  END
>  <Energy>  (434) 
320.71845343872889

>  <compound_id>  (434) 
5209

>  <target_id>  (434) 
1

>  <reference_id>  (434) 
112

>  <inspiration_ids>  (434) 
[60, 112]

>  <energy_score>  (434) 
205.38767895578323

>  <distance_score>  (434) 
15.312063645018856

>  <path>  (434) 
/opt/xchem-fragalysis-2/maxwin/BulkDock/SCRATCH/511018/C5209-P112/C5209-P112.minimised.mol

>  <scratch_subdir>  (434) 
/opt/xchem-fragalysis-2/maxwin/BulkDock/SCRATCH/511018/C5209-P112

>  <fragmenstein_runtime>  (434) 
25.09261465072632

>  <fragmenstein_outcome>  (434) 
too moved

>  <fragmenstein_mode>  (434) 
expansion

>  <fragmenstein_error>  (434) 


$$$$
C5216-P60
     RDKit          3D

 45 46  0  0  0  0  0  0  0  0999 V2000
   -7.3876  -22.0419   13.2188 C   0  0  0  0  0  0  0  0  0  0  0  0
   -8.3836  -22.0682   12.3446 N   0  0  0  0  0  0  0  0  0  0  0  0
   -9.3256  -23.0413   12.0582 C   0  0  0  0  0  0  0  0  0  0  0  0
   -9.4488  -24.1541   12.4591 O   0  0  0  0  0  0  0  0  0  0  0  0
  -10.2104  -22.2413   11.1729 C   0  0  0  0  0  0  0  0  0  0  0  0
  -11.0427  -21.9382   12.2273 C   0  0  0  0  0  0  0  0  0  0  0  0
  -10.9834  -20.5898   12.8821 C   0  0  0  0  0  0  0  0  0  0  0  0
  -10.3018  -19.3802   12.5865 C   0  0  0  0  0  0  0  0  0  0  0  0
  -10.6689  -17.8693   13.6435 C   0  0  0  0  0  0  0  0  0  0  0  0
  -11.1806  -18.2014   14.6587 O   0  0  0  0  0  0  0  0  0  0  0  0
  -10.3765  -16.5671   13.1920 N   0  0  0  0  0  0  0  0  0  0  0  0
  -10.7082  -15.2229   13.7742 C   0  0  0  0  0  0  0  0  0  0  0  0
   -8.8930  -16.1255   13.6536 C   0  0  0  0  0  0  0  0  0  0  0  0
   -8.1982  -14.7356   13.1835 C   0  0  0  0  0  0  0  0  0  0  0  0
   -7.5431  -14.5338   11.8945 N   0  0  0  0  0  0  0  0  0  0  0  0
   -6.7204  -15.4153   11.1046 C   0  0  0  0  0  0  0  0  0  0  0  0
   -6.3083  -16.5057   11.3410 O   0  0  0  0  0  0  0  0  0  0  0  0
   -6.4323  -14.8426    9.6636 C   0  0  0  0  0  0  0  0  0  0  0  0
   -5.1653  -15.1431    8.9481 N   0  0  0  0  0  0  0  0  0  0  0  0
   -5.0076  -15.0010    7.5862 C   0  0  0  0  0  0  0  0  0  0  0  0
   -3.9123  -15.7639    7.2446 C   0  0  0  0  0  0  0  0  0  0  0  0
   -3.3725  -16.1778    8.4675 C   0  0  0  0  0  0  0  0  0  0  0  0
   -4.0769  -15.7128    9.4923 N   0  0  0  0  0  0  0  0  0  0  0  0
   -9.5583  -19.8130   11.4806 C   0  0  0  0  0  0  0  0  0  0  0  0
   -9.5954  -21.1009   10.6791 N   0  0  0  0  0  0  0  0  0  0  0  0
   -7.8579  -22.1195   14.2007 H   0  0  0  0  0  0  0  0  0  0  0  0
   -6.7609  -22.8180   12.8652 H   0  0  0  0  0  0  0  0  0  0  0  0
   -6.9245  -21.0855   13.0691 H   0  0  0  0  0  0  0  0  0  0  0  0
   -8.5393  -21.2931   11.7651 H   0  0  0  0  0  0  0  0  0  0  0  0
  -11.7048  -22.7189   12.5922 H   0  0  0  0  0  0  0  0  0  0  0  0
  -11.9207  -20.3501   13.3176 H   0  0  0  0  0  0  0  0  0  0  0  0
  -10.6560  -14.4391   13.0113 H   0  0  0  0  0  0  0  0  0  0  0  0
  -10.3217  -14.9599   14.7711 H   0  0  0  0  0  0  0  0  0  0  0  0
  -11.7780  -15.2663   14.0117 H   0  0  0  0  0  0  0  0  0  0  0  0
   -8.8280  -16.2359   14.7501 H   0  0  0  0  0  0  0  0  0  0  0  0
   -8.2303  -16.9091   13.2843 H   0  0  0  0  0  0  0  0  0  0  0  0
   -8.7953  -13.8422   13.3745 H   0  0  0  0  0  0  0  0  0  0  0  0
   -7.3777  -14.6981   13.8558 H   0  0  0  0  0  0  0  0  0  0  0  0
   -7.6314  -13.6479   11.4154 H   0  0  0  0  0  0  0  0  0  0  0  0
   -7.1860  -15.2877    9.0024 H   0  0  0  0  0  0  0  0  0  0  0  0
   -6.6051  -13.7701    9.5999 H   0  0  0  0  0  0  0  0  0  0  0  0
   -5.7438  -14.4898    6.9830 H   0  0  0  0  0  0  0  0  0  0  0  0
   -3.5481  -15.9774    6.2498 H   0  0  0  0  0  0  0  0  0  0  0  0
   -2.5054  -16.7974    8.6538 H   0  0  0  0  0  0  0  0  0  0  0  0
   -8.5581  -19.4835   11.2432 H   0  0  0  0  0  0  0  0  0  0  0  0
  1  2  1  0
  2  3  1  0
  3  4  2  0
  3  5  1  0
  5  6  2  0
  6  7  1  0
  7  8  2  0
  8  9  1  0
  9 10  2  0
  9 11  1  0
 11 12  1  0
 11 13  1  0
 13 14  1  0
 14 15  1  0
 15 16  1  0
 16 17  2  0
 16 18  1  0
 18 19  1  0
 19 20  1  0
 20 21  2  0
 21 22  1  0
 22 23  2  0
  8 24  1  0
 24 25  2  0
 25  5  1  0
 23 19  1  0
  1 26  1  0
  1 27  1  0
  1 28  1  0
  2 29  1  0
  6 30  1  0
  7 31  1  0
 12 32  1  0
 12 33  1  0
 12 34  1  0
 13 35  1  0
 13 36  1  0
 14 37  1  0
 14 38  1  0
 15 39  1  0
 18 40  1  0
 18 41  1  0
 20 42  1  0
 21 43  1  0
 22 44  1  0
 24 45  1  0
M  END
>  <Energy>  (435) 
371.22870718347735

>  <compound_id>  (435) 
5216

>  <target_id>  (435) 
1

>  <reference_id>  (435) 
60

>  <inspiration_ids>  (435) 
[60, 112]

>  <energy_score>  (435) 
275.4938370662777

>  <distance_score>  (435) 
14.279051751931604

>  <path>  (435) 
/opt/xchem-fragalysis-2/maxwin/BulkDock/SCRATCH/511018/C5216-P60/C5216-P60.minimised.mol

>  <scratch_subdir>  (435) 
/opt/xchem-fragalysis-2/maxwin/BulkDock/SCRATCH/511018/C5216-P60

>  <fragmenstein_runtime>  (435) 
23.646624088287354

>  <fragmenstein_outcome>  (435) 
too moved

>  <fragmenstein_mode>  (435) 
expansion

>  <fragmenstein_error>  (435) 


$$$$
C5216-P112
     RDKit          3D

 45 46  0  0  0  0  0  0  0  0999 V2000
   -7.7826  -26.8128   11.3785 C   0  0  0  0  0  0  0  0  0  0  0  0
   -7.1829  -25.5258   11.5707 N   0  0  0  0  0  0  0  0  0  0  0  0
   -5.9698  -24.9748   11.0659 C   0  0  0  0  0  0  0  0  0  0  0  0
   -5.0979  -25.4704   10.4142 O   0  0  0  0  0  0  0  0  0  0  0  0
   -5.8571  -23.5078   11.3786 C   0  0  0  0  0  0  0  0  0  0  0  0
   -5.2669  -22.6640   10.4951 C   0  0  0  0  0  0  0  0  0  0  0  0
   -5.3467  -21.2120   10.6622 C   0  0  0  0  0  0  0  0  0  0  0  0
   -5.8529  -20.5069   11.7063 C   0  0  0  0  0  0  0  0  0  0  0  0
   -6.7976  -19.2605   11.5372 C   0  0  0  0  0  0  0  0  0  0  0  0
   -7.9692  -19.6596   11.4684 O   0  0  0  0  0  0  0  0  0  0  0  0
   -6.1205  -17.4841   11.6076 N   0  0  0  0  0  0  0  0  0  0  0  0
   -6.8667  -16.2243   11.7165 C   0  0  0  0  0  0  0  0  0  0  0  0
   -5.5735  -16.3127   10.0206 C   0  0  0  0  0  0  0  0  0  0  0  0
   -3.7827  -15.7024    9.1349 C   0  0  0  0  0  0  0  0  0  0  0  0
   -2.8401  -14.3516    9.9598 N   0  0  0  0  0  0  0  0  0  0  0  0
   -1.3251  -13.1287    9.3583 C   0  0  0  0  0  0  0  0  0  0  0  0
   -0.3229  -13.1112    7.7550 O   0  0  0  0  0  0  0  0  0  0  0  0
   -0.6255  -11.7803   10.7931 C   0  0  0  0  0  0  0  0  0  0  0  0
    0.7380  -10.5034   10.6795 N   0  0  0  0  0  0  0  0  0  0  0  0
    0.9086   -9.4552    9.6889 C   0  0  0  0  0  0  0  0  0  0  0  0
    2.2217   -9.0606    9.6345 C   0  0  0  0  0  0  0  0  0  0  0  0
    2.8590   -9.9749   10.4508 C   0  0  0  0  0  0  0  0  0  0  0  0
    2.0122  -10.8277   11.0386 N   0  0  0  0  0  0  0  0  0  0  0  0
   -6.5861  -21.5188   12.4174 C   0  0  0  0  0  0  0  0  0  0  0  0
   -6.6774  -22.9339   12.2693 N   0  0  0  0  0  0  0  0  0  0  0  0
   -8.1625  -27.1701   12.3379 H   0  0  0  0  0  0  0  0  0  0  0  0
   -7.0428  -27.5093   10.9773 H   0  0  0  0  0  0  0  0  0  0  0  0
   -8.6092  -26.7060   10.6721 H   0  0  0  0  0  0  0  0  0  0  0  0
   -7.7218  -24.7870   12.0132 H   0  0  0  0  0  0  0  0  0  0  0  0
   -4.9948  -23.0640    9.5237 H   0  0  0  0  0  0  0  0  0  0  0  0
   -5.1248  -20.6401    9.7662 H   0  0  0  0  0  0  0  0  0  0  0  0
   -7.5982  -16.4303   12.5090 H   0  0  0  0  0  0  0  0  0  0  0  0
   -7.3362  -15.6193   10.9808 H   0  0  0  0  0  0  0  0  0  0  0  0
   -6.2079  -15.5292   12.2580 H   0  0  0  0  0  0  0  0  0  0  0  0
   -6.0055  -15.3076   10.0319 H   0  0  0  0  0  0  0  0  0  0  0  0
   -5.9846  -16.8238    9.1348 H   0  0  0  0  0  0  0  0  0  0  0  0
   -4.1221  -15.2885    8.1857 H   0  0  0  0  0  0  0  0  0  0  0  0
   -3.1287  -16.5706    9.0717 H   0  0  0  0  0  0  0  0  0  0  0  0
   -3.0747  -14.1302   10.9154 H   0  0  0  0  0  0  0  0  0  0  0  0
    0.0588  -12.4731   11.3553 H   0  0  0  0  0  0  0  0  0  0  0  0
   -1.0675  -11.3917   11.7042 H   0  0  0  0  0  0  0  0  0  0  0  0
    0.0690   -9.0669    9.1367 H   0  0  0  0  0  0  0  0  0  0  0  0
    2.6492   -8.2760    9.0294 H   0  0  0  0  0  0  0  0  0  0  0  0
    3.9177  -10.0628   10.6529 H   0  0  0  0  0  0  0  0  0  0  0  0
   -7.3198  -21.2453   13.1560 H   0  0  0  0  0  0  0  0  0  0  0  0
  1  2  1  0
  2  3  1  0
  3  4  2  0
  3  5  1  0
  5  6  2  0
  6  7  1  0
  7  8  2  0
  8  9  1  0
  9 10  2  0
  9 11  1  0
 11 12  1  0
 11 13  1  0
 13 14  1  0
 14 15  1  0
 15 16  1  0
 16 17  2  0
 16 18  1  0
 18 19  1  0
 19 20  1  0
 20 21  2  0
 21 22  1  0
 22 23  2  0
  8 24  1  0
 24 25  2  0
 25  5  1  0
 23 19  1  0
  1 26  1  0
  1 27  1  0
  1 28  1  0
  2 29  1  0
  6 30  1  0
  7 31  1  0
 12 32  1  0
 12 33  1  0
 12 34  1  0
 13 35  1  0
 13 36  1  0
 14 37  1  0
 14 38  1  0
 15 39  1  0
 18 40  1  0
 18 41  1  0
 20 42  1  0
 21 43  1  0
 22 44  1  0
 24 45  1  0
M  END
>  <Energy>  (436) 
1091.2813863118415

>  <compound_id>  (436) 
5216

>  <target_id>  (436) 
1

>  <reference_id>  (436) 
112

>  <inspiration_ids>  (436) 
[60, 112]

>  <energy_score>  (436) 
995.5465161946449

>  <distance_score>  (436) 
11.231197693074941

>  <path>  (436) 
/opt/xchem-fragalysis-2/maxwin/BulkDock/SCRATCH/511018/C5216-P112/C5216-P112.minimised.mol

>  <scratch_subdir>  (436) 
/opt/xchem-fragalysis-2/maxwin/BulkDock/SCRATCH/511018/C5216-P112

>  <fragmenstein_runtime>  (436) 
30.999831676483154

>  <fragmenstein_outcome>  (436) 
too moved

>  <fragmenstein_mode>  (436) 
expansion

>  <fragmenstein_error>  (436) 


$$$$
C5238-P60
     RDKit          3D

 40 41  0  0  0  0  0  0  0  0999 V2000
   -0.9019   -5.1816   10.3925 C   0  0  0  0  0  0  0  0  0  0  0  0
   -1.6764   -5.5085   11.6014 N   0  0  0  0  0  0  0  0  0  0  0  0
   -0.8747   -4.8617   12.7993 C   0  0  0  0  0  0  0  0  0  0  0  0
    0.7524   -5.1997   13.0140 C   0  0  0  0  0  0  0  0  0  0  0  0
    1.3939   -4.7548   14.2678 O   0  0  0  0  0  0  0  0  0  0  0  0
    2.8186   -5.0870   14.3393 C   0  0  0  0  0  0  0  0  0  0  0  0
    3.3789   -5.0360   15.7796 C   0  0  0  0  0  0  0  0  0  0  0  0
    4.6776   -5.6266   15.8561 O   0  0  0  0  0  0  0  0  0  0  0  0
   -3.3105   -5.1942   11.3147 C   0  0  0  0  0  0  0  0  0  0  0  0
   -4.6056   -6.3111   10.9284 C   0  0  0  0  0  0  0  0  0  0  0  0
   -5.7429   -6.4526   11.7410 C   0  0  0  0  0  0  0  0  0  0  0  0
   -6.6090   -7.6215   11.7321 C   0  0  0  0  0  0  0  0  0  0  0  0
   -6.4440   -8.6123   10.7783 C   0  0  0  0  0  0  0  0  0  0  0  0
   -7.1316   -9.9018   10.8996 N   0  0  0  0  0  0  0  0  0  0  0  0
   -7.1651  -10.9257    9.9612 C   0  0  0  0  0  0  0  0  0  0  0  0
   -7.7732  -12.0180   10.5413 C   0  0  0  0  0  0  0  0  0  0  0  0
   -8.1329  -11.5725   11.8203 C   0  0  0  0  0  0  0  0  0  0  0  0
   -7.8020  -10.2920   12.0351 N   0  0  0  0  0  0  0  0  0  0  0  0
   -5.5985   -8.3393    9.7472 N   0  0  0  0  0  0  0  0  0  0  0  0
   -4.7554   -7.1934    9.8371 C   0  0  0  0  0  0  0  0  0  0  0  0
   -0.8182   -4.0990   10.2502 H   0  0  0  0  0  0  0  0  0  0  0  0
   -1.3863   -5.6006    9.5040 H   0  0  0  0  0  0  0  0  0  0  0  0
    0.0992   -5.6206   10.4274 H   0  0  0  0  0  0  0  0  0  0  0  0
   -0.9724   -3.7720   12.7222 H   0  0  0  0  0  0  0  0  0  0  0  0
   -1.3618   -5.1526   13.7294 H   0  0  0  0  0  0  0  0  0  0  0  0
    1.3030   -4.7461   12.1835 H   0  0  0  0  0  0  0  0  0  0  0  0
    0.8468   -6.2862   12.9636 H   0  0  0  0  0  0  0  0  0  0  0  0
    3.3668   -4.3882   13.6979 H   0  0  0  0  0  0  0  0  0  0  0  0
    2.9723   -6.0911   13.9339 H   0  0  0  0  0  0  0  0  0  0  0  0
    2.7057   -5.5836   16.4484 H   0  0  0  0  0  0  0  0  0  0  0  0
    3.4284   -4.0013   16.1324 H   0  0  0  0  0  0  0  0  0  0  0  0
    4.8303   -5.8372   16.7938 H   0  0  0  0  0  0  0  0  0  0  0  0
   -3.3482   -4.4457   10.5138 H   0  0  0  0  0  0  0  0  0  0  0  0
   -3.6521   -4.6989   12.2294 H   0  0  0  0  0  0  0  0  0  0  0  0
   -5.9486   -5.6620   12.4612 H   0  0  0  0  0  0  0  0  0  0  0  0
   -7.3677   -7.7189   12.5052 H   0  0  0  0  0  0  0  0  0  0  0  0
   -6.7227  -10.7720    8.9873 H   0  0  0  0  0  0  0  0  0  0  0  0
   -7.9258  -12.9942   10.1035 H   0  0  0  0  0  0  0  0  0  0  0  0
   -8.6352  -12.1216   12.6065 H   0  0  0  0  0  0  0  0  0  0  0  0
   -4.0972   -7.1042    8.9716 H   0  0  0  0  0  0  0  0  0  0  0  0
  1  2  1  0
  2  3  1  0
  3  4  1  0
  4  5  1  0
  5  6  1  0
  6  7  1  0
  7  8  1  0
  2  9  1  0
  9 10  1  0
 10 11  2  0
 11 12  1  0
 12 13  2  0
 13 14  1  0
 14 15  1  0
 15 16  2  0
 16 17  1  0
 17 18  2  0
 13 19  1  0
 19 20  2  0
 20 10  1  0
 18 14  1  0
  1 21  1  0
  1 22  1  0
  1 23  1  0
  3 24  1  0
  3 25  1  0
  4 26  1  0
  4 27  1  0
  6 28  1  0
  6 29  1  0
  7 30  1  0
  7 31  1  0
  8 32  1  0
  9 33  1  0
  9 34  1  0
 11 35  1  0
 12 36  1  0
 15 37  1  0
 16 38  1  0
 17 39  1  0
 20 40  1  0
M  END
>  <Energy>  (437) 
196.21174799416173

>  <compound_id>  (437) 
5238

>  <target_id>  (437) 
1

>  <reference_id>  (437) 
60

>  <inspiration_ids>  (437) 
[60, 112]

>  <energy_score>  (437) 
25.67087174986881

>  <distance_score>  (437) 
16.190716889717926

>  <path>  (437) 
/opt/xchem-fragalysis-2/maxwin/BulkDock/SCRATCH/511018/C5238-P60/C5238-P60.minimised.mol

>  <scratch_subdir>  (437) 
/opt/xchem-fragalysis-2/maxwin/BulkDock/SCRATCH/511018/C5238-P60

>  <fragmenstein_runtime>  (437) 
12.056439876556396

>  <fragmenstein_outcome>  (437) 
too moved

>  <fragmenstein_mode>  (437) 
expansion

>  <fragmenstein_error>  (437) 


$$$$
C5238-P112
     RDKit          3D

 40 41  0  0  0  0  0  0  0  0999 V2000
   -0.0434   -6.7216   12.6751 C   0  0  0  0  0  0  0  0  0  0  0  0
   -0.5141   -7.6927   13.6984 N   0  0  0  0  0  0  0  0  0  0  0  0
    0.4377   -7.0626   15.0760 C   0  0  0  0  0  0  0  0  0  0  0  0
    1.8833   -6.2471   15.1004 C   0  0  0  0  0  0  0  0  0  0  0  0
    2.8605   -6.7252   16.0862 O   0  0  0  0  0  0  0  0  0  0  0  0
    4.0291   -5.8649   16.2032 C   0  0  0  0  0  0  0  0  0  0  0  0
    5.0802   -6.4616   17.1580 C   0  0  0  0  0  0  0  0  0  0  0  0
    4.7783   -6.2490   18.5326 O   0  0  0  0  0  0  0  0  0  0  0  0
   -1.1713   -9.6112   13.7013 C   0  0  0  0  0  0  0  0  0  0  0  0
   -0.6580  -11.2587   12.6774 C   0  0  0  0  0  0  0  0  0  0  0  0
   -0.5035  -12.1838   11.6524 C   0  0  0  0  0  0  0  0  0  0  0  0
   -0.7435  -13.8329   12.1667 C   0  0  0  0  0  0  0  0  0  0  0  0
   -1.1976  -13.8964   13.6874 C   0  0  0  0  0  0  0  0  0  0  0  0
   -2.5347  -14.8911   14.8177 N   0  0  0  0  0  0  0  0  0  0  0  0
   -3.5175  -16.4017   14.5023 C   0  0  0  0  0  0  0  0  0  0  0  0
   -3.9904  -17.1249   15.5193 C   0  0  0  0  0  0  0  0  0  0  0  0
   -3.9440  -16.1397   16.4760 C   0  0  0  0  0  0  0  0  0  0  0  0
   -3.3204  -14.8355   16.3322 N   0  0  0  0  0  0  0  0  0  0  0  0
    0.0188  -13.5186   13.4491 N   0  0  0  0  0  0  0  0  0  0  0  0
    0.2337  -12.1490   13.1786 C   0  0  0  0  0  0  0  0  0  0  0  0
   -0.5419   -6.6122   11.7232 H   0  0  0  0  0  0  0  0  0  0  0  0
   -0.2065   -5.7199   13.1004 H   0  0  0  0  0  0  0  0  0  0  0  0
    1.0132   -6.7354   12.4194 H   0  0  0  0  0  0  0  0  0  0  0  0
    0.3907   -7.7426   15.9334 H   0  0  0  0  0  0  0  0  0  0  0  0
   -0.2232   -6.2287   15.3359 H   0  0  0  0  0  0  0  0  0  0  0  0
    1.6454   -5.2096   15.3692 H   0  0  0  0  0  0  0  0  0  0  0  0
    2.3513   -6.2103   14.1155 H   0  0  0  0  0  0  0  0  0  0  0  0
    4.4676   -5.7651   15.2046 H   0  0  0  0  0  0  0  0  0  0  0  0
    3.6961   -4.8864   16.5638 H   0  0  0  0  0  0  0  0  0  0  0  0
    6.0378   -5.9822   16.9762 H   0  0  0  0  0  0  0  0  0  0  0  0
    5.1667   -7.5397   16.9976 H   0  0  0  0  0  0  0  0  0  0  0  0
    3.8783   -6.6022   18.6636 H   0  0  0  0  0  0  0  0  0  0  0  0
   -1.2667   -9.8374   14.7462 H   0  0  0  0  0  0  0  0  0  0  0  0
   -2.1614   -9.3354   13.6099 H   0  0  0  0  0  0  0  0  0  0  0  0
   -0.4700  -11.9906   10.5843 H   0  0  0  0  0  0  0  0  0  0  0  0
   -0.9673  -14.5613   11.3895 H   0  0  0  0  0  0  0  0  0  0  0  0
   -3.9765  -16.3329   13.5129 H   0  0  0  0  0  0  0  0  0  0  0  0
   -4.6119  -18.0067   15.5009 H   0  0  0  0  0  0  0  0  0  0  0  0
   -4.6396  -16.3359   17.2791 H   0  0  0  0  0  0  0  0  0  0  0  0
    1.2008  -11.9258   13.6028 H   0  0  0  0  0  0  0  0  0  0  0  0
  1  2  1  0
  2  3  1  0
  3  4  1  0
  4  5  1  0
  5  6  1  0
  6  7  1  0
  7  8  1  0
  2  9  1  0
  9 10  1  0
 10 11  2  0
 11 12  1  0
 12 13  2  0
 13 14  1  0
 14 15  1  0
 15 16  2  0
 16 17  1  0
 17 18  2  0
 13 19  1  0
 19 20  2  0
 20 10  1  0
 18 14  1  0
  1 21  1  0
  1 22  1  0
  1 23  1  0
  3 24  1  0
  3 25  1  0
  4 26  1  0
  4 27  1  0
  6 28  1  0
  6 29  1  0
  7 30  1  0
  7 31  1  0
  8 32  1  0
  9 33  1  0
  9 34  1  0
 11 35  1  0
 12 36  1  0
 15 37  1  0
 16 38  1  0
 17 39  1  0
 20 40  1  0
M  END
>  <Energy>  (438) 
994.70572178571877

>  <compound_id>  (438) 
5238

>  <target_id>  (438) 
1

>  <reference_id>  (438) 
112

>  <inspiration_ids>  (438) 
[60, 112]

>  <energy_score>  (438) 
824.1648455414193

>  <distance_score>  (438) 
14.578573967832217

>  <path>  (438) 
/opt/xchem-fragalysis-2/maxwin/BulkDock/SCRATCH/511018/C5238-P112/C5238-P112.minimised.mol

>  <scratch_subdir>  (438) 
/opt/xchem-fragalysis-2/maxwin/BulkDock/SCRATCH/511018/C5238-P112

>  <fragmenstein_runtime>  (438) 
11.368748188018799

>  <fragmenstein_outcome>  (438) 
too moved

>  <fragmenstein_mode>  (438) 
expansion

>  <fragmenstein_error>  (438) 


$$$$
C5250-P60
     RDKit          3D

 54 55  0  0  0  0  0  0  0  0999 V2000
    1.5574  -16.4449   10.0641 C   0  0  0  0  0  0  0  0  0  0  0  0
    0.3082  -16.1136   11.4263 C   0  0  0  0  0  0  0  0  0  0  0  0
    0.2962  -17.3711   11.5693 N   0  0  0  0  0  0  0  0  0  0  0  0
    0.2087  -15.3292   11.7824 C   0  0  0  0  0  0  0  0  0  0  0  0
   -0.1003  -14.1296   13.3390 C   0  0  0  0  0  0  0  0  0  0  0  0
    1.1922  -13.7323   13.5449 N   0  0  0  0  0  0  0  0  0  0  0  0
    2.0170  -12.7910   14.9468 C   0  0  0  0  0  0  0  0  0  0  0  0
    1.5816  -12.4370   15.9526 O   0  0  0  0  0  0  0  0  0  0  0  0
    4.0387  -12.0670   14.6473 C   0  0  0  0  0  0  0  0  0  0  0  0
    4.6696  -10.8823   14.1170 C   0  0  0  0  0  0  0  0  0  0  0  0
    6.3179  -10.6274   13.4945 C   0  0  0  0  0  0  0  0  0  0  0  0
    7.3804  -11.3484   13.0175 N   0  0  0  0  0  0  0  0  0  0  0  0
    6.9280  -12.5398   13.2073 C   0  0  0  0  0  0  0  0  0  0  0  0
    5.4246  -12.6831   13.8865 C   0  0  0  0  0  0  0  0  0  0  0  0
    1.4164  -18.3345   11.8582 C   0  0  0  0  0  0  0  0  0  0  0  0
    2.5674  -18.1381   12.1557 O   0  0  0  0  0  0  0  0  0  0  0  0
    0.9447  -19.9532   11.5896 C   0  0  0  0  0  0  0  0  0  0  0  0
    0.3887  -21.2375   12.3801 C   0  0  0  0  0  0  0  0  0  0  0  0
   -1.0538  -21.8802   12.6000 C   0  0  0  0  0  0  0  0  0  0  0  0
   -2.0816  -22.6290   11.6557 C   0  0  0  0  0  0  0  0  0  0  0  0
   -1.7569  -22.9284   10.1928 C   0  0  0  0  0  0  0  0  0  0  0  0
   -3.0094  -23.5107    9.5032 C   0  0  0  0  0  0  0  0  0  0  0  0
   -3.4250  -24.7362   10.1118 O   0  0  0  0  0  0  0  0  0  0  0  0
   -3.7561  -24.5542   11.4865 C   0  0  0  0  0  0  0  0  0  0  0  0
   -2.5718  -23.9706   12.2710 C   0  0  0  0  0  0  0  0  0  0  0  0
    1.1454  -17.2080    9.3799 H   0  0  0  0  0  0  0  0  0  0  0  0
    1.7900  -15.5747    9.4549 H   0  0  0  0  0  0  0  0  0  0  0  0
    2.5204  -16.8180   10.4049 H   0  0  0  0  0  0  0  0  0  0  0  0
   -0.0849  -15.8226   10.1880 H   0  0  0  0  0  0  0  0  0  0  0  0
   -0.6834  -16.5678   10.9883 H   0  0  0  0  0  0  0  0  0  0  0  0
    0.8728  -14.5097   11.2806 H   0  0  0  0  0  0  0  0  0  0  0  0
   -0.9102  -14.8493   11.3647 H   0  0  0  0  0  0  0  0  0  0  0  0
   -0.3451  -13.2519   12.7277 H   0  0  0  0  0  0  0  0  0  0  0  0
   -0.8991  -14.0595   14.0302 H   0  0  0  0  0  0  0  0  0  0  0  0
    1.8008  -13.9780   12.8719 H   0  0  0  0  0  0  0  0  0  0  0  0
    4.0630  -10.0121   13.9776 H   0  0  0  0  0  0  0  0  0  0  0  0
    6.8246   -9.6398   13.5365 H   0  0  0  0  0  0  0  0  0  0  0  0
    7.5520  -13.3775   12.9572 H   0  0  0  0  0  0  0  0  0  0  0  0
    5.7520  -13.7025   13.9155 H   0  0  0  0  0  0  0  0  0  0  0  0
    1.9763  -20.3211   11.4124 H   0  0  0  0  0  0  0  0  0  0  0  0
    0.5843  -19.9976   10.5578 H   0  0  0  0  0  0  0  0  0  0  0  0
    0.9541  -22.0781   11.9480 H   0  0  0  0  0  0  0  0  0  0  0  0
    0.8105  -21.1168   13.3861 H   0  0  0  0  0  0  0  0  0  0  0  0
   -1.6427  -21.0903   13.0585 H   0  0  0  0  0  0  0  0  0  0  0  0
   -0.8562  -22.6055   13.4023 H   0  0  0  0  0  0  0  0  0  0  0  0
   -2.9649  -21.9736   11.6399 H   0  0  0  0  0  0  0  0  0  0  0  0
   -0.9380  -23.6564   10.1437 H   0  0  0  0  0  0  0  0  0  0  0  0
   -1.4309  -22.0376    9.6504 H   0  0  0  0  0  0  0  0  0  0  0  0
   -3.8395  -22.7951    9.5116 H   0  0  0  0  0  0  0  0  0  0  0  0
   -2.7756  -23.7304    8.4565 H   0  0  0  0  0  0  0  0  0  0  0  0
   -4.6521  -23.9358   11.5336 H   0  0  0  0  0  0  0  0  0  0  0  0
   -4.0161  -25.5358   11.8953 H   0  0  0  0  0  0  0  0  0  0  0  0
   -2.8244  -23.8584   13.3288 H   0  0  0  0  0  0  0  0  0  0  0  0
   -1.7400  -24.6868   12.2312 H   0  0  0  0  0  0  0  0  0  0  0  0
  1  2  1  0
  2  3  1  0
  3  4  1  0
  4  5  1  0
  5  6  1  0
  6  7  1  0
  7  8  2  0
  7  9  1  0
  9 10  2  0
 10 11  1  0
 11 12  2  0
 12 13  1  0
 13 14  2  0
  3 15  1  0
 15 16  2  0
 15 17  1  0
 17 18  1  0
 18 19  1  0
 19 20  1  0
 20 21  1  0
 21 22  1  0
 22 23  1  0
 23 24  1  0
 24 25  1  0
 14  9  1  0
 25 20  1  0
  1 26  1  0
  1 27  1  0
  1 28  1  0
  2 29  1  0
  2 30  1  0
  4 31  1  0
  4 32  1  0
  5 33  1  0
  5 34  1  0
  6 35  1  0
 10 36  1  0
 11 37  1  0
 13 38  1  0
 14 39  1  0
 17 40  1  0
 17 41  1  0
 18 42  1  0
 18 43  1  0
 19 44  1  0
 19 45  1  0
 20 46  1  0
 21 47  1  0
 21 48  1  0
 22 49  1  0
 22 50  1  0
 24 51  1  0
 24 52  1  0
 25 53  1  0
 25 54  1  0
M  END
>  <Energy>  (439) 
1461.1369443449653

>  <compound_id>  (439) 
5250

>  <target_id>  (439) 
1

>  <reference_id>  (439) 
60

>  <inspiration_ids>  (439) 
[60, 112]

>  <energy_score>  (439) 
1410.0563163063437

>  <distance_score>  (439) 
12.7169219335069

>  <path>  (439) 
/opt/xchem-fragalysis-2/maxwin/BulkDock/SCRATCH/511018/C5250-P60/C5250-P60.minimised.mol

>  <scratch_subdir>  (439) 
/opt/xchem-fragalysis-2/maxwin/BulkDock/SCRATCH/511018/C5250-P60

>  <fragmenstein_runtime>  (439) 
31.06273627281189

>  <fragmenstein_outcome>  (439) 
too moved

>  <fragmenstein_mode>  (439) 
expansion

>  <fragmenstein_error>  (439) 


$$$$
C5250-P112
     RDKit          3D

 54 55  0  0  0  0  0  0  0  0999 V2000
   -2.2952  -17.8547   23.1198 C   0  0  0  0  0  0  0  0  0  0  0  0
   -3.1872  -16.3409   22.6381 C   0  0  0  0  0  0  0  0  0  0  0  0
   -4.0360  -17.1867   22.0918 N   0  0  0  0  0  0  0  0  0  0  0  0
   -2.7390  -15.7232   22.3778 C   0  0  0  0  0  0  0  0  0  0  0  0
   -3.0989  -14.0425   22.9063 C   0  0  0  0  0  0  0  0  0  0  0  0
   -1.9819  -13.0458   22.7588 N   0  0  0  0  0  0  0  0  0  0  0  0
   -1.0055  -12.5531   23.7264 C   0  0  0  0  0  0  0  0  0  0  0  0
   -0.7990  -12.8791   24.8623 O   0  0  0  0  0  0  0  0  0  0  0  0
   -0.0565  -11.4047   23.2627 C   0  0  0  0  0  0  0  0  0  0  0  0
   -0.4103  -10.3292   22.4350 C   0  0  0  0  0  0  0  0  0  0  0  0
    0.5739   -9.3977   22.0537 C   0  0  0  0  0  0  0  0  0  0  0  0
    1.8709   -9.4399   22.4422 N   0  0  0  0  0  0  0  0  0  0  0  0
    2.1932  -10.4513   23.2709 C   0  0  0  0  0  0  0  0  0  0  0  0
    1.2877  -11.4303   23.6949 C   0  0  0  0  0  0  0  0  0  0  0  0
   -5.3180  -17.0528   21.1340 C   0  0  0  0  0  0  0  0  0  0  0  0
   -5.7790  -16.1546   20.5727 O   0  0  0  0  0  0  0  0  0  0  0  0
   -5.8336  -18.5195   20.9925 C   0  0  0  0  0  0  0  0  0  0  0  0
   -6.4446  -18.9034   19.5935 C   0  0  0  0  0  0  0  0  0  0  0  0
   -5.9870  -20.3068   19.0836 C   0  0  0  0  0  0  0  0  0  0  0  0
   -7.0410  -21.1711   18.2926 C   0  0  0  0  0  0  0  0  0  0  0  0
   -6.4132  -22.9574   18.2197 C   0  0  0  0  0  0  0  0  0  0  0  0
   -7.5313  -24.2799   17.0197 C   0  0  0  0  0  0  0  0  0  0  0  0
   -8.7198  -23.5708   15.8026 O   0  0  0  0  0  0  0  0  0  0  0  0
   -9.0353  -22.1457   15.8553 C   0  0  0  0  0  0  0  0  0  0  0  0
   -8.6306  -20.9615   17.4295 C   0  0  0  0  0  0  0  0  0  0  0  0
   -1.9859  -18.4253   22.2436 H   0  0  0  0  0  0  0  0  0  0  0  0
   -2.9487  -18.4877   23.7389 H   0  0  0  0  0  0  0  0  0  0  0  0
   -1.4079  -17.5815   23.7062 H   0  0  0  0  0  0  0  0  0  0  0  0
   -3.1748  -16.3714   23.9457 H   0  0  0  0  0  0  0  0  0  0  0  0
   -4.2981  -15.9976   23.1631 H   0  0  0  0  0  0  0  0  0  0  0  0
   -2.6190  -15.3945   21.2124 H   0  0  0  0  0  0  0  0  0  0  0  0
   -1.5006  -15.8765   22.4578 H   0  0  0  0  0  0  0  0  0  0  0  0
   -3.9471  -13.6831   22.3146 H   0  0  0  0  0  0  0  0  0  0  0  0
   -3.3589  -14.0751   23.9705 H   0  0  0  0  0  0  0  0  0  0  0  0
   -1.9281  -12.4822   21.9174 H   0  0  0  0  0  0  0  0  0  0  0  0
   -1.4232  -10.2088   22.0678 H   0  0  0  0  0  0  0  0  0  0  0  0
    0.3208   -8.5784   21.3840 H   0  0  0  0  0  0  0  0  0  0  0  0
    3.2264  -10.4708   23.6062 H   0  0  0  0  0  0  0  0  0  0  0  0
    1.6282  -12.2191   24.3611 H   0  0  0  0  0  0  0  0  0  0  0  0
   -5.0102  -19.2031   21.2258 H   0  0  0  0  0  0  0  0  0  0  0  0
   -6.5981  -18.6642   21.7651 H   0  0  0  0  0  0  0  0  0  0  0  0
   -7.5363  -18.8597   19.6827 H   0  0  0  0  0  0  0  0  0  0  0  0
   -6.1642  -18.1542   18.8443 H   0  0  0  0  0  0  0  0  0  0  0  0
   -5.7083  -20.9029   19.9659 H   0  0  0  0  0  0  0  0  0  0  0  0
   -5.0458  -20.2116   18.5279 H   0  0  0  0  0  0  0  0  0  0  0  0
   -7.6638  -20.9306   19.1733 H   0  0  0  0  0  0  0  0  0  0  0  0
   -5.4009  -22.6963   17.8374 H   0  0  0  0  0  0  0  0  0  0  0  0
   -6.1625  -23.4666   19.1703 H   0  0  0  0  0  0  0  0  0  0  0  0
   -8.3635  -24.8540   17.1231 H   0  0  0  0  0  0  0  0  0  0  0  0
   -7.0067  -25.2064   16.7320 H   0  0  0  0  0  0  0  0  0  0  0  0
   -8.3755  -22.0242   14.9616 H   0  0  0  0  0  0  0  0  0  0  0  0
   -9.8848  -21.8217   15.3101 H   0  0  0  0  0  0  0  0  0  0  0  0
   -9.0280  -19.9555   17.5098 H   0  0  0  0  0  0  0  0  0  0  0  0
   -9.2316  -21.3146   18.2395 H   0  0  0  0  0  0  0  0  0  0  0  0
  1  2  1  0
  2  3  1  0
  3  4  1  0
  4  5  1  0
  5  6  1  0
  6  7  1  0
  7  8  2  0
  7  9  1  0
  9 10  2  0
 10 11  1  0
 11 12  2  0
 12 13  1  0
 13 14  2  0
  3 15  1  0
 15 16  2  0
 15 17  1  0
 17 18  1  0
 18 19  1  0
 19 20  1  0
 20 21  1  0
 21 22  1  0
 22 23  1  0
 23 24  1  0
 24 25  1  0
 14  9  1  0
 25 20  1  0
  1 26  1  0
  1 27  1  0
  1 28  1  0
  2 29  1  0
  2 30  1  0
  4 31  1  0
  4 32  1  0
  5 33  1  0
  5 34  1  0
  6 35  1  0
 10 36  1  0
 11 37  1  0
 13 38  1  0
 14 39  1  0
 17 40  1  0
 17 41  1  0
 18 42  1  0
 18 43  1  0
 19 44  1  0
 19 45  1  0
 20 46  1  0
 21 47  1  0
 21 48  1  0
 22 49  1  0
 22 50  1  0
 24 51  1  0
 24 52  1  0
 25 53  1  0
 25 54  1  0
M  END
>  <Energy>  (440) 
1150.1382897929511

>  <compound_id>  (440) 
5250

>  <target_id>  (440) 
1

>  <reference_id>  (440) 
112

>  <inspiration_ids>  (440) 
[60, 112]

>  <energy_score>  (440) 
1099.0576617543359

>  <distance_score>  (440) 
12.997529108495891

>  <path>  (440) 
/opt/xchem-fragalysis-2/maxwin/BulkDock/SCRATCH/511018/C5250-P112/C5250-P112.minimised.mol

>  <scratch_subdir>  (440) 
/opt/xchem-fragalysis-2/maxwin/BulkDock/SCRATCH/511018/C5250-P112

>  <fragmenstein_runtime>  (440) 
40.170878410339355

>  <fragmenstein_outcome>  (440) 
too moved

>  <fragmenstein_mode>  (440) 
expansion

>  <fragmenstein_error>  (440) 


$$$$
C5289-P60
     RDKit          3D

 52 53  0  0  0  0  0  0  0  0999 V2000
   -2.6144  -14.9048    9.5990 O   0  0  0  0  0  0  0  0  0  0  0  0
   -2.1523  -15.3025   10.6489 C   0  0  0  0  0  0  0  0  0  0  0  0
   -3.0692  -16.4767   11.2383 C   0  0  0  0  0  0  0  0  0  0  0  0
   -4.5373  -15.7617   11.5427 C   0  0  0  0  0  0  0  0  0  0  0  0
   -5.8493  -16.3745   12.1916 C   0  0  0  0  0  0  0  0  0  0  0  0
   -7.0780  -16.4943   11.1980 C   0  0  0  0  0  0  0  0  0  0  0  0
   -8.0252  -15.2713   11.1942 C   0  0  0  0  0  0  0  0  0  0  0  0
   -9.5249  -15.6296   11.1506 C   0  0  0  0  0  0  0  0  0  0  0  0
   -9.8434  -16.6685   10.2318 O   0  0  0  0  0  0  0  0  0  0  0  0
   -8.9854  -17.8027   10.2949 C   0  0  0  0  0  0  0  0  0  0  0  0
   -7.9590  -17.7249   11.4103 C   0  0  0  0  0  0  0  0  0  0  0  0
   -0.9279  -14.7717   11.4990 N   0  0  0  0  0  0  0  0  0  0  0  0
    0.0940  -13.3783   11.2902 C   0  0  0  0  0  0  0  0  0  0  0  0
    0.2133  -11.4364   11.4409 C   0  0  0  0  0  0  0  0  0  0  0  0
   -0.2922  -11.7474   12.7526 C   0  0  0  0  0  0  0  0  0  0  0  0
    0.7169  -12.3190   13.5871 O   0  0  0  0  0  0  0  0  0  0  0  0
    1.3169   -9.9381   10.9596 N   0  0  0  0  0  0  0  0  0  0  0  0
    1.0944   -8.0848   11.2633 C   0  0  0  0  0  0  0  0  0  0  0  0
    0.1919   -7.6249   11.9260 O   0  0  0  0  0  0  0  0  0  0  0  0
    2.0024   -6.8588   10.6931 C   0  0  0  0  0  0  0  0  0  0  0  0
    3.2276   -6.3854   11.1483 C   0  0  0  0  0  0  0  0  0  0  0  0
    3.5768   -5.0257   11.0421 C   0  0  0  0  0  0  0  0  0  0  0  0
    2.7587   -4.1581   10.3649 C   0  0  0  0  0  0  0  0  0  0  0  0
    1.5872   -4.5553    9.8627 N   0  0  0  0  0  0  0  0  0  0  0  0
    1.2238   -5.8537   10.0941 C   0  0  0  0  0  0  0  0  0  0  0  0
   -3.1659  -17.1934   10.4174 H   0  0  0  0  0  0  0  0  0  0  0  0
   -2.6706  -17.0317   12.0857 H   0  0  0  0  0  0  0  0  0  0  0  0
   -4.3019  -14.9004   12.1811 H   0  0  0  0  0  0  0  0  0  0  0  0
   -4.8452  -15.3010   10.5941 H   0  0  0  0  0  0  0  0  0  0  0  0
   -5.6345  -17.2865   12.7479 H   0  0  0  0  0  0  0  0  0  0  0  0
   -6.1537  -15.6772   12.9849 H   0  0  0  0  0  0  0  0  0  0  0  0
   -6.6734  -16.5633   10.1796 H   0  0  0  0  0  0  0  0  0  0  0  0
   -7.7871  -14.6705   10.3067 H   0  0  0  0  0  0  0  0  0  0  0  0
   -7.8475  -14.6198   12.0570 H   0  0  0  0  0  0  0  0  0  0  0  0
  -10.1023  -14.7438   10.8649 H   0  0  0  0  0  0  0  0  0  0  0  0
   -9.8819  -15.9190   12.1464 H   0  0  0  0  0  0  0  0  0  0  0  0
   -9.5863  -18.7076   10.3882 H   0  0  0  0  0  0  0  0  0  0  0  0
   -8.4838  -17.8558    9.3281 H   0  0  0  0  0  0  0  0  0  0  0  0
   -8.4790  -17.6030   12.3586 H   0  0  0  0  0  0  0  0  0  0  0  0
   -7.3907  -18.6517   11.4347 H   0  0  0  0  0  0  0  0  0  0  0  0
   -0.7654  -15.3992   12.2905 H   0  0  0  0  0  0  0  0  0  0  0  0
    0.3432  -13.7129   12.3013 H   0  0  0  0  0  0  0  0  0  0  0  0
    1.1073  -13.6531   11.1683 H   0  0  0  0  0  0  0  0  0  0  0  0
   -0.6260  -11.0819   10.8950 H   0  0  0  0  0  0  0  0  0  0  0  0
   -0.8374  -12.5953   12.9535 H   0  0  0  0  0  0  0  0  0  0  0  0
   -0.9322  -10.9104   13.0603 H   0  0  0  0  0  0  0  0  0  0  0  0
    0.3135  -12.9729   14.1773 H   0  0  0  0  0  0  0  0  0  0  0  0
    2.1752  -10.0934   10.4560 H   0  0  0  0  0  0  0  0  0  0  0  0
    3.8433   -7.0251   11.7412 H   0  0  0  0  0  0  0  0  0  0  0  0
    4.4368   -4.6154   11.5447 H   0  0  0  0  0  0  0  0  0  0  0  0
    3.0028   -3.1077   10.2443 H   0  0  0  0  0  0  0  0  0  0  0  0
    0.2000   -6.0712    9.7910 H   0  0  0  0  0  0  0  0  0  0  0  0
  1  2  2  0
  2  3  1  0
  3  4  1  0
  4  5  1  0
  5  6  1  0
  6  7  1  0
  7  8  1  0
  8  9  1  0
  9 10  1  0
 10 11  1  0
  2 12  1  0
 12 13  1  0
 13 14  1  0
 14 15  1  0
 15 16  1  0
 14 17  1  0
 17 18  1  0
 18 19  2  0
 18 20  1  0
 20 21  2  0
 21 22  1  0
 22 23  2  0
 23 24  1  0
 24 25  2  0
 11  6  1  0
 25 20  1  0
  3 26  1  0
  3 27  1  0
  4 28  1  0
  4 29  1  0
  5 30  1  0
  5 31  1  0
  6 32  1  0
  7 33  1  0
  7 34  1  0
  8 35  1  0
  8 36  1  0
 10 37  1  0
 10 38  1  0
 11 39  1  0
 11 40  1  0
 12 41  1  0
 13 42  1  0
 13 43  1  0
 14 44  1  0
 15 45  1  0
 15 46  1  0
 16 47  1  0
 17 48  1  0
 21 49  1  0
 22 50  1  0
 23 51  1  0
 25 52  1  0
M  END
>  <Energy>  (441) 
475.50178907972185

>  <compound_id>  (441) 
5289

>  <target_id>  (441) 
1

>  <reference_id>  (441) 
60

>  <inspiration_ids>  (441) 
[60, 112]

>  <energy_score>  (441) 
385.0399550570406

>  <distance_score>  (441) 
12.606751033286237

>  <path>  (441) 
/opt/xchem-fragalysis-2/maxwin/BulkDock/SCRATCH/511018/C5289-P60/C5289-P60.minimised.mol

>  <scratch_subdir>  (441) 
/opt/xchem-fragalysis-2/maxwin/BulkDock/SCRATCH/511018/C5289-P60

>  <fragmenstein_runtime>  (441) 
28.442986488342285

>  <fragmenstein_outcome>  (441) 
too moved

>  <fragmenstein_mode>  (441) 
expansion

>  <fragmenstein_error>  (441) 


$$$$
C5289-P112
     RDKit          3D

 52 53  0  0  0  0  0  0  0  0999 V2000
    5.1302  -16.0374   15.6961 O   0  0  0  0  0  0  0  0  0  0  0  0
    5.4845  -15.8705   14.5329 C   0  0  0  0  0  0  0  0  0  0  0  0
    5.5651  -17.2687   13.6090 C   0  0  0  0  0  0  0  0  0  0  0  0
    4.2143  -18.3397   13.3684 C   0  0  0  0  0  0  0  0  0  0  0  0
    3.1852  -18.9431   14.4716 C   0  0  0  0  0  0  0  0  0  0  0  0
    1.6654  -19.4000   14.1115 C   0  0  0  0  0  0  0  0  0  0  0  0
    0.9889  -20.2914   15.1919 C   0  0  0  0  0  0  0  0  0  0  0  0
   -0.3513  -20.9152   14.7421 C   0  0  0  0  0  0  0  0  0  0  0  0
   -0.9420  -20.1649   13.6884 O   0  0  0  0  0  0  0  0  0  0  0  0
   -0.1377  -20.2171   12.5064 C   0  0  0  0  0  0  0  0  0  0  0  0
    1.3812  -20.0379   12.7532 C   0  0  0  0  0  0  0  0  0  0  0  0
    5.8297  -14.2463   13.5619 N   0  0  0  0  0  0  0  0  0  0  0  0
    5.5910  -12.2512   14.0720 C   0  0  0  0  0  0  0  0  0  0  0  0
    6.0148  -10.2073   13.9442 C   0  0  0  0  0  0  0  0  0  0  0  0
    7.1789  -11.9034   13.3819 C   0  0  0  0  0  0  0  0  0  0  0  0
    7.8991  -13.1161   14.0327 O   0  0  0  0  0  0  0  0  0  0  0  0
    6.8866   -8.2476   13.7907 N   0  0  0  0  0  0  0  0  0  0  0  0
    7.0768   -6.7274   15.0081 C   0  0  0  0  0  0  0  0  0  0  0  0
    6.5811   -6.5865   16.1263 O   0  0  0  0  0  0  0  0  0  0  0  0
    8.4488   -5.1071   14.6098 C   0  0  0  0  0  0  0  0  0  0  0  0
   10.1907   -4.4706   14.6352 C   0  0  0  0  0  0  0  0  0  0  0  0
   10.9997   -3.2523   14.6723 C   0  0  0  0  0  0  0  0  0  0  0  0
   10.3489   -2.0836   14.8777 C   0  0  0  0  0  0  0  0  0  0  0  0
    9.0405   -2.1027   15.1147 N   0  0  0  0  0  0  0  0  0  0  0  0
    8.3302   -3.3876   15.0483 C   0  0  0  0  0  0  0  0  0  0  0  0
    5.8888  -16.9853   12.6008 H   0  0  0  0  0  0  0  0  0  0  0  0
    6.3528  -17.8799   14.0663 H   0  0  0  0  0  0  0  0  0  0  0  0
    3.6863  -17.9434   12.4998 H   0  0  0  0  0  0  0  0  0  0  0  0
    4.7048  -19.2328   12.9507 H   0  0  0  0  0  0  0  0  0  0  0  0
    3.1111  -18.2034   15.2786 H   0  0  0  0  0  0  0  0  0  0  0  0
    3.6892  -19.8145   14.9095 H   0  0  0  0  0  0  0  0  0  0  0  0
    1.0717  -18.4888   14.1344 H   0  0  0  0  0  0  0  0  0  0  0  0
    1.6643  -21.0949   15.5088 H   0  0  0  0  0  0  0  0  0  0  0  0
    0.8136  -19.6755   16.0828 H   0  0  0  0  0  0  0  0  0  0  0  0
   -1.0504  -20.9421   15.5842 H   0  0  0  0  0  0  0  0  0  0  0  0
   -0.2030  -21.9505   14.4114 H   0  0  0  0  0  0  0  0  0  0  0  0
   -0.3107  -21.1709   11.9976 H   0  0  0  0  0  0  0  0  0  0  0  0
   -0.4963  -19.4226   11.8436 H   0  0  0  0  0  0  0  0  0  0  0  0
    1.8108  -19.4502   11.9349 H   0  0  0  0  0  0  0  0  0  0  0  0
    1.8681  -21.0205   12.7102 H   0  0  0  0  0  0  0  0  0  0  0  0
    6.1081  -14.4745   12.5695 H   0  0  0  0  0  0  0  0  0  0  0  0
    4.7001  -12.0538   14.6645 H   0  0  0  0  0  0  0  0  0  0  0  0
    5.2463  -11.9555   13.1114 H   0  0  0  0  0  0  0  0  0  0  0  0
    7.0576  -10.1896   14.2608 H   0  0  0  0  0  0  0  0  0  0  0  0
    8.2570  -11.5429   13.6220 H   0  0  0  0  0  0  0  0  0  0  0  0
    7.1054  -12.4198   12.4407 H   0  0  0  0  0  0  0  0  0  0  0  0
    8.2527  -12.7408   14.8665 H   0  0  0  0  0  0  0  0  0  0  0  0
    7.3639   -8.0568   12.9284 H   0  0  0  0  0  0  0  0  0  0  0  0
   10.9698   -5.2574   14.8490 H   0  0  0  0  0  0  0  0  0  0  0  0
   12.0813   -3.3031   14.6271 H   0  0  0  0  0  0  0  0  0  0  0  0
   10.8403   -1.1204   14.9028 H   0  0  0  0  0  0  0  0  0  0  0  0
    7.3132   -2.9636   15.1837 H   0  0  0  0  0  0  0  0  0  0  0  0
  1  2  2  0
  2  3  1  0
  3  4  1  0
  4  5  1  0
  5  6  1  0
  6  7  1  0
  7  8  1  0
  8  9  1  0
  9 10  1  0
 10 11  1  0
  2 12  1  0
 12 13  1  0
 13 14  1  0
 14 15  1  0
 15 16  1  0
 14 17  1  0
 17 18  1  0
 18 19  2  0
 18 20  1  0
 20 21  2  0
 21 22  1  0
 22 23  2  0
 23 24  1  0
 24 25  2  0
 11  6  1  0
 25 20  1  0
  3 26  1  0
  3 27  1  0
  4 28  1  0
  4 29  1  0
  5 30  1  0
  5 31  1  0
  6 32  1  0
  7 33  1  0
  7 34  1  0
  8 35  1  0
  8 36  1  0
 10 37  1  0
 10 38  1  0
 11 39  1  0
 11 40  1  0
 12 41  1  0
 13 42  1  0
 13 43  1  0
 14 44  1  0
 15 45  1  0
 15 46  1  0
 16 47  1  0
 17 48  1  0
 21 49  1  0
 22 50  1  0
 23 51  1  0
 25 52  1  0
M  END
>  <Energy>  (442) 
1378.8471283127437

>  <compound_id>  (442) 
5289

>  <target_id>  (442) 
1

>  <reference_id>  (442) 
112

>  <inspiration_ids>  (442) 
[60, 112]

>  <energy_score>  (442) 
1288.385294290073

>  <distance_score>  (442) 
14.884723198888283

>  <path>  (442) 
/opt/xchem-fragalysis-2/maxwin/BulkDock/SCRATCH/511018/C5289-P112/C5289-P112.minimised.mol

>  <scratch_subdir>  (442) 
/opt/xchem-fragalysis-2/maxwin/BulkDock/SCRATCH/511018/C5289-P112

>  <fragmenstein_runtime>  (442) 
32.18009114265442

>  <fragmenstein_outcome>  (442) 
too moved

>  <fragmenstein_mode>  (442) 
expansion

>  <fragmenstein_error>  (442) 


$$$$
C5294-P60
     RDKit          3D

 40 41  0  0  0  0  0  0  0  0999 V2000
    2.9913  -19.8591   16.1693 C   0  0  0  0  0  0  0  0  0  0  0  0
    1.9321  -20.6984   16.3550 N   0  0  0  0  0  0  0  0  0  0  0  0
    2.6634  -18.9995   15.8328 C   0  0  0  0  0  0  0  0  0  0  0  0
    2.2810  -17.2937   16.5288 C   0  0  0  0  0  0  0  0  0  0  0  0
    2.7279  -15.5791   17.1577 N   0  0  0  0  0  0  0  0  0  0  0  0
    3.9104  -15.0952   18.0598 C   0  0  0  0  0  0  0  0  0  0  0  0
    4.8585  -15.7013   18.4936 O   0  0  0  0  0  0  0  0  0  0  0  0
    3.8636  -13.6414   18.6165 C   0  0  0  0  0  0  0  0  0  0  0  0
    4.9258  -12.9800   19.9061 C   0  0  0  0  0  0  0  0  0  0  0  0
    4.8990  -12.9896   21.3180 C   0  0  0  0  0  0  0  0  0  0  0  0
    6.0676  -12.3668   21.7759 C   0  0  0  0  0  0  0  0  0  0  0  0
    6.7018  -11.7773   20.7748 N   0  0  0  0  0  0  0  0  0  0  0  0
    5.8972  -12.0500   19.7159 N   0  0  0  0  0  0  0  0  0  0  0  0
    0.5775  -20.6140   16.2243 C   0  0  0  0  0  0  0  0  0  0  0  0
   -0.2219  -20.2697   17.0823 O   0  0  0  0  0  0  0  0  0  0  0  0
    0.0776  -21.0443   14.9003 C   0  0  0  0  0  0  0  0  0  0  0  0
   -1.0733  -21.7947   14.8233 C   0  0  0  0  0  0  0  0  0  0  0  0
   -1.8966  -21.5458   13.7462 C   0  0  0  0  0  0  0  0  0  0  0  0
   -1.5960  -20.4845   12.9046 C   0  0  0  0  0  0  0  0  0  0  0  0
   -2.5896  -19.7182   12.3076 N   0  0  0  0  0  0  0  0  0  0  0  0
   -0.3717  -19.9883   12.7881 N   0  0  0  0  0  0  0  0  0  0  0  0
    0.4678  -20.3422   13.7705 C   0  0  0  0  0  0  0  0  0  0  0  0
    4.1017  -20.2389   16.2788 H   0  0  0  0  0  0  0  0  0  0  0  0
    3.2682  -20.6573   15.3029 H   0  0  0  0  0  0  0  0  0  0  0  0
    3.1162  -20.0637   17.3064 H   0  0  0  0  0  0  0  0  0  0  0  0
    1.6193  -18.8325   15.3712 H   0  0  0  0  0  0  0  0  0  0  0  0
    3.1912  -18.8470   14.7281 H   0  0  0  0  0  0  0  0  0  0  0  0
    3.1244  -17.1081   15.8565 H   0  0  0  0  0  0  0  0  0  0  0  0
    1.9779  -17.7460   17.4614 H   0  0  0  0  0  0  0  0  0  0  0  0
    2.1427  -14.7807   16.9094 H   0  0  0  0  0  0  0  0  0  0  0  0
    3.5852  -12.7645   18.0571 H   0  0  0  0  0  0  0  0  0  0  0  0
    2.9703  -14.0949   19.0631 H   0  0  0  0  0  0  0  0  0  0  0  0
    4.1556  -13.4675   21.9382 H   0  0  0  0  0  0  0  0  0  0  0  0
    6.4477  -12.2788   22.7841 H   0  0  0  0  0  0  0  0  0  0  0  0
    5.9862  -11.4479   18.9085 H   0  0  0  0  0  0  0  0  0  0  0  0
   -1.4148  -22.4169   15.6436 H   0  0  0  0  0  0  0  0  0  0  0  0
   -2.8552  -22.0111   13.7177 H   0  0  0  0  0  0  0  0  0  0  0  0
   -2.1617  -18.9995   11.7497 H   0  0  0  0  0  0  0  0  0  0  0  0
   -3.1989  -19.3710   13.0486 H   0  0  0  0  0  0  0  0  0  0  0  0
    1.4439  -19.8938   13.6599 H   0  0  0  0  0  0  0  0  0  0  0  0
  1  2  1  0
  2  3  1  0
  3  4  1  0
  4  5  1  0
  5  6  1  0
  6  7  2  0
  6  8  1  0
  8  9  1  0
  9 10  2  0
 10 11  1  0
 11 12  2  0
 12 13  1  0
  2 14  1  0
 14 15  2  0
 14 16  1  0
 16 17  2  0
 17 18  1  0
 18 19  2  0
 19 20  1  0
 19 21  1  0
 21 22  2  0
 13  9  1  0
 22 16  1  0
  1 23  1  0
  1 24  1  0
  1 25  1  0
  3 26  1  0
  3 27  1  0
  4 28  1  0
  4 29  1  0
  5 30  1  0
  8 31  1  0
  8 32  1  0
 10 33  1  0
 11 34  1  0
 13 35  1  0
 17 36  1  0
 18 37  1  0
 20 38  1  0
 20 39  1  0
 22 40  1  0
M  END
>  <Energy>  (443) 
822.10251365663009

>  <compound_id>  (443) 
5294

>  <target_id>  (443) 
1

>  <reference_id>  (443) 
60

>  <inspiration_ids>  (443) 
[60, 112]

>  <energy_score>  (443) 
792.1475848803786

>  <distance_score>  (443) 
13.373080278732207

>  <path>  (443) 
/opt/xchem-fragalysis-2/maxwin/BulkDock/SCRATCH/511018/C5294-P60/C5294-P60.minimised.mol

>  <scratch_subdir>  (443) 
/opt/xchem-fragalysis-2/maxwin/BulkDock/SCRATCH/511018/C5294-P60

>  <fragmenstein_runtime>  (443) 
18.0888888835907

>  <fragmenstein_outcome>  (443) 
too moved

>  <fragmenstein_mode>  (443) 
expansion

>  <fragmenstein_error>  (443) 


$$$$
C5294-P112
     RDKit          3D

 40 41  0  0  0  0  0  0  0  0999 V2000
   -2.0253  -15.5310   20.0863 C   0  0  0  0  0  0  0  0  0  0  0  0
   -1.2825  -15.2001   18.5993 N   0  0  0  0  0  0  0  0  0  0  0  0
    0.4704  -15.9140   18.3187 C   0  0  0  0  0  0  0  0  0  0  0  0
    2.1477  -15.1641   18.1292 C   0  0  0  0  0  0  0  0  0  0  0  0
    2.7613  -14.6950   19.4997 N   0  0  0  0  0  0  0  0  0  0  0  0
    4.0237  -13.7170   19.8148 C   0  0  0  0  0  0  0  0  0  0  0  0
    4.8096  -13.2048   19.0680 O   0  0  0  0  0  0  0  0  0  0  0  0
    4.3459  -13.4098   21.4303 C   0  0  0  0  0  0  0  0  0  0  0  0
    5.7324  -12.8234   21.7175 C   0  0  0  0  0  0  0  0  0  0  0  0
    6.5284  -12.7999   22.8478 C   0  0  0  0  0  0  0  0  0  0  0  0
    7.6324  -11.9840   22.5240 C   0  0  0  0  0  0  0  0  0  0  0  0
    7.5428  -11.4956   21.2909 N   0  0  0  0  0  0  0  0  0  0  0  0
    6.4232  -12.0777   20.8049 N   0  0  0  0  0  0  0  0  0  0  0  0
   -2.2957  -14.2312   17.5427 C   0  0  0  0  0  0  0  0  0  0  0  0
   -2.1388  -13.0146   17.6623 O   0  0  0  0  0  0  0  0  0  0  0  0
   -3.7060  -14.8514   16.3881 C   0  0  0  0  0  0  0  0  0  0  0  0
   -5.1046  -14.4394   16.5773 C   0  0  0  0  0  0  0  0  0  0  0  0
   -6.2898  -14.7213   15.7946 C   0  0  0  0  0  0  0  0  0  0  0  0
   -6.1520  -15.4086   14.6342 C   0  0  0  0  0  0  0  0  0  0  0  0
   -7.2046  -15.6507   13.7540 N   0  0  0  0  0  0  0  0  0  0  0  0
   -4.9633  -15.9338   14.3890 N   0  0  0  0  0  0  0  0  0  0  0  0
   -3.8793  -15.7269   15.3051 C   0  0  0  0  0  0  0  0  0  0  0  0
   -2.3875  -14.5935   20.5239 H   0  0  0  0  0  0  0  0  0  0  0  0
   -1.3938  -16.0214   20.8439 H   0  0  0  0  0  0  0  0  0  0  0  0
   -2.7811  -16.3108   19.9206 H   0  0  0  0  0  0  0  0  0  0  0  0
    0.7787  -16.1970   19.3695 H   0  0  0  0  0  0  0  0  0  0  0  0
    0.4153  -16.9084   18.0451 H   0  0  0  0  0  0  0  0  0  0  0  0
    2.0489  -14.3324   17.4590 H   0  0  0  0  0  0  0  0  0  0  0  0
    2.8062  -15.9409   17.7324 H   0  0  0  0  0  0  0  0  0  0  0  0
    2.2624  -14.8795   20.3426 H   0  0  0  0  0  0  0  0  0  0  0  0
    3.6816  -12.6937   21.8751 H   0  0  0  0  0  0  0  0  0  0  0  0
    4.1576  -14.2286   22.0988 H   0  0  0  0  0  0  0  0  0  0  0  0
    6.3299  -13.2869   23.7914 H   0  0  0  0  0  0  0  0  0  0  0  0
    8.4797  -11.7147   23.1407 H   0  0  0  0  0  0  0  0  0  0  0  0
    6.1367  -11.9075   19.8387 H   0  0  0  0  0  0  0  0  0  0  0  0
   -5.3705  -13.6591   17.2960 H   0  0  0  0  0  0  0  0  0  0  0  0
   -7.2355  -14.2655   16.0673 H   0  0  0  0  0  0  0  0  0  0  0  0
   -6.8419  -16.2394   13.0092 H   0  0  0  0  0  0  0  0  0  0  0  0
   -8.0049  -16.0643   14.2144 H   0  0  0  0  0  0  0  0  0  0  0  0
   -3.1423  -16.4291   14.9763 H   0  0  0  0  0  0  0  0  0  0  0  0
  1  2  1  0
  2  3  1  0
  3  4  1  0
  4  5  1  0
  5  6  1  0
  6  7  2  0
  6  8  1  0
  8  9  1  0
  9 10  2  0
 10 11  1  0
 11 12  2  0
 12 13  1  0
  2 14  1  0
 14 15  2  0
 14 16  1  0
 16 17  2  0
 17 18  1  0
 18 19  2  0
 19 20  1  0
 19 21  1  0
 21 22  2  0
 13  9  1  0
 22 16  1  0
  1 23  1  0
  1 24  1  0
  1 25  1  0
  3 26  1  0
  3 27  1  0
  4 28  1  0
  4 29  1  0
  5 30  1  0
  8 31  1  0
  8 32  1  0
 10 33  1  0
 11 34  1  0
 13 35  1  0
 17 36  1  0
 18 37  1  0
 20 38  1  0
 20 39  1  0
 22 40  1  0
M  END
>  <Energy>  (444) 
304.03778721271919

>  <compound_id>  (444) 
5294

>  <target_id>  (444) 
1

>  <reference_id>  (444) 
112

>  <inspiration_ids>  (444) 
[60, 112]

>  <energy_score>  (444) 
274.0828584364576

>  <distance_score>  (444) 
13.105769285685732

>  <path>  (444) 
/opt/xchem-fragalysis-2/maxwin/BulkDock/SCRATCH/511018/C5294-P112/C5294-P112.minimised.mol

>  <scratch_subdir>  (444) 
/opt/xchem-fragalysis-2/maxwin/BulkDock/SCRATCH/511018/C5294-P112

>  <fragmenstein_runtime>  (444) 
12.14317512512207

>  <fragmenstein_outcome>  (444) 
too moved

>  <fragmenstein_mode>  (444) 
expansion

>  <fragmenstein_error>  (444) 


$$$$
C5308-P60
     RDKit          3D

 41 42  0  0  0  0  0  0  0  0999 V2000
    2.8588   -9.0718    9.4718 C   0  0  0  0  0  0  0  0  0  0  0  0
    3.7102  -10.2783    9.7392 N   0  0  0  0  0  0  0  0  0  0  0  0
    2.2913  -11.0167    9.6316 C   0  0  0  0  0  0  0  0  0  0  0  0
    2.3752  -12.5625    9.3750 C   0  0  0  0  0  0  0  0  0  0  0  0
    1.0976  -13.3440    9.5027 N   0  0  0  0  0  0  0  0  0  0  0  0
    0.6898  -14.6088    8.9067 C   0  0  0  0  0  0  0  0  0  0  0  0
    1.2404  -15.3058    8.1007 O   0  0  0  0  0  0  0  0  0  0  0  0
   -0.6603  -15.2083    9.3589 C   0  0  0  0  0  0  0  0  0  0  0  0
   -0.8134  -16.6135    9.3943 C   0  0  0  0  0  0  0  0  0  0  0  0
   -2.0626  -17.1843    9.6583 C   0  0  0  0  0  0  0  0  0  0  0  0
   -3.1744  -16.4593    9.9135 N   0  0  0  0  0  0  0  0  0  0  0  0
   -3.0220  -15.1175    9.8621 C   0  0  0  0  0  0  0  0  0  0  0  0
   -1.8135  -14.4585    9.5875 C   0  0  0  0  0  0  0  0  0  0  0  0
    4.5700  -10.0395   10.8879 C   0  0  0  0  0  0  0  0  0  0  0  0
    4.3894  -10.2576   12.0556 O   0  0  0  0  0  0  0  0  0  0  0  0
    5.8769   -9.2931   10.5440 C   0  0  0  0  0  0  0  0  0  0  0  0
    6.8200   -9.0267   11.7791 C   0  0  0  0  0  0  0  0  0  0  0  0
    6.3438   -8.0849   12.8567 C   0  0  0  0  0  0  0  0  0  0  0  0
    6.9108   -7.7302   14.0669 C   0  0  0  0  0  0  0  0  0  0  0  0
    6.0121   -6.8174   14.6421 C   0  0  0  0  0  0  0  0  0  0  0  0
    4.9234   -6.6352   13.8930 N   0  0  0  0  0  0  0  0  0  0  0  0
    5.1567   -7.4065   12.8140 N   0  0  0  0  0  0  0  0  0  0  0  0
    2.0566   -8.8765   10.1954 H   0  0  0  0  0  0  0  0  0  0  0  0
    3.5108   -8.1945    9.5787 H   0  0  0  0  0  0  0  0  0  0  0  0
    2.5378   -9.0166    8.4216 H   0  0  0  0  0  0  0  0  0  0  0  0
    1.6484  -10.6775    8.8034 H   0  0  0  0  0  0  0  0  0  0  0  0
    1.7809  -10.8971   10.5979 H   0  0  0  0  0  0  0  0  0  0  0  0
    2.7587  -12.7466    8.3649 H   0  0  0  0  0  0  0  0  0  0  0  0
    3.1026  -13.0039   10.0574 H   0  0  0  0  0  0  0  0  0  0  0  0
    0.4233  -13.0792   10.2103 H   0  0  0  0  0  0  0  0  0  0  0  0
    0.0348  -17.2595    9.1796 H   0  0  0  0  0  0  0  0  0  0  0  0
   -2.1954  -18.2645    9.6705 H   0  0  0  0  0  0  0  0  0  0  0  0
   -3.9314  -14.5472   10.0374 H   0  0  0  0  0  0  0  0  0  0  0  0
   -1.7988  -13.3794    9.4950 H   0  0  0  0  0  0  0  0  0  0  0  0
    5.6370   -8.3387   10.0657 H   0  0  0  0  0  0  0  0  0  0  0  0
    6.4222   -9.9103    9.8205 H   0  0  0  0  0  0  0  0  0  0  0  0
    7.0589   -9.9900   12.2477 H   0  0  0  0  0  0  0  0  0  0  0  0
    7.7576   -8.6246   11.3774 H   0  0  0  0  0  0  0  0  0  0  0  0
    7.8535   -8.0720   14.4640 H   0  0  0  0  0  0  0  0  0  0  0  0
    6.1031   -6.2858   15.5793 H   0  0  0  0  0  0  0  0  0  0  0  0
    4.4349   -7.4583   12.1049 H   0  0  0  0  0  0  0  0  0  0  0  0
  1  2  1  0
  2  3  1  0
  3  4  1  0
  4  5  1  0
  5  6  1  0
  6  7  2  0
  6  8  1  0
  8  9  2  0
  9 10  1  0
 10 11  2  0
 11 12  1  0
 12 13  2  0
  2 14  1  0
 14 15  2  0
 14 16  1  0
 16 17  1  0
 17 18  1  0
 18 19  2  0
 19 20  1  0
 20 21  2  0
 21 22  1  0
 13  8  1  0
 22 18  1  0
  1 23  1  0
  1 24  1  0
  1 25  1  0
  3 26  1  0
  3 27  1  0
  4 28  1  0
  4 29  1  0
  5 30  1  0
  9 31  1  0
 10 32  1  0
 12 33  1  0
 13 34  1  0
 16 35  1  0
 16 36  1  0
 17 37  1  0
 17 38  1  0
 19 39  1  0
 20 40  1  0
 22 41  1  0
M  END
>  <Energy>  (445) 
97.010687850982023

>  <compound_id>  (445) 
5308

>  <target_id>  (445) 
1

>  <reference_id>  (445) 
60

>  <inspiration_ids>  (445) 
[60, 112]

>  <energy_score>  (445) 
78.80433060214958

>  <distance_score>  (445) 
14.373523560765543

>  <path>  (445) 
/opt/xchem-fragalysis-2/maxwin/BulkDock/SCRATCH/511018/C5308-P60/C5308-P60.minimised.mol

>  <scratch_subdir>  (445) 
/opt/xchem-fragalysis-2/maxwin/BulkDock/SCRATCH/511018/C5308-P60

>  <fragmenstein_runtime>  (445) 
17.698541164398193

>  <fragmenstein_outcome>  (445) 
too moved

>  <fragmenstein_mode>  (445) 
expansion

>  <fragmenstein_error>  (445) 


$$$$
C5308-P112
     RDKit          3D

 41 42  0  0  0  0  0  0  0  0999 V2000
   -1.8694  -14.4136   17.7590 C   0  0  0  0  0  0  0  0  0  0  0  0
   -1.1657  -15.2286   18.9134 N   0  0  0  0  0  0  0  0  0  0  0  0
   -2.6683  -15.8663   19.0096 C   0  0  0  0  0  0  0  0  0  0  0  0
   -3.9573  -15.1285   19.4806 C   0  0  0  0  0  0  0  0  0  0  0  0
   -5.0299  -16.1322   19.4935 N   0  0  0  0  0  0  0  0  0  0  0  0
   -5.3148  -17.1877   20.4149 C   0  0  0  0  0  0  0  0  0  0  0  0
   -4.8008  -17.4759   21.4548 O   0  0  0  0  0  0  0  0  0  0  0  0
   -6.3681  -18.1476   19.9469 C   0  0  0  0  0  0  0  0  0  0  0  0
   -6.0902  -19.5117   20.0755 C   0  0  0  0  0  0  0  0  0  0  0  0
   -7.0649  -20.4228   19.7226 C   0  0  0  0  0  0  0  0  0  0  0  0
   -8.2863  -20.0739   19.2686 N   0  0  0  0  0  0  0  0  0  0  0  0
   -8.5221  -18.7489   19.1312 C   0  0  0  0  0  0  0  0  0  0  0  0
   -7.6054  -17.7541   19.4439 C   0  0  0  0  0  0  0  0  0  0  0  0
    0.4278  -15.9760   18.3702 C   0  0  0  0  0  0  0  0  0  0  0  0
    0.4694  -17.0724   17.9133 O   0  0  0  0  0  0  0  0  0  0  0  0
    2.2135  -15.2970   18.5620 C   0  0  0  0  0  0  0  0  0  0  0  0
    3.6463  -14.2204   18.7626 C   0  0  0  0  0  0  0  0  0  0  0  0
    4.6954  -13.3955   19.9725 C   0  0  0  0  0  0  0  0  0  0  0  0
    4.6757  -13.3404   21.3804 C   0  0  0  0  0  0  0  0  0  0  0  0
    5.8495  -12.7075   21.7900 C   0  0  0  0  0  0  0  0  0  0  0  0
    6.5460  -12.2794   20.7474 N   0  0  0  0  0  0  0  0  0  0  0  0
    5.7798  -12.6115   19.6984 N   0  0  0  0  0  0  0  0  0  0  0  0
   -1.0879  -14.0111   17.1075 H   0  0  0  0  0  0  0  0  0  0  0  0
   -2.2504  -13.4974   18.2485 H   0  0  0  0  0  0  0  0  0  0  0  0
   -2.8152  -14.7172   17.2768 H   0  0  0  0  0  0  0  0  0  0  0  0
   -2.5189  -16.5218   19.8770 H   0  0  0  0  0  0  0  0  0  0  0  0
   -2.9173  -16.6033   18.2309 H   0  0  0  0  0  0  0  0  0  0  0  0
   -4.2808  -14.3203   18.8218 H   0  0  0  0  0  0  0  0  0  0  0  0
   -3.8241  -14.7456   20.4970 H   0  0  0  0  0  0  0  0  0  0  0  0
   -5.6157  -16.2428   18.6735 H   0  0  0  0  0  0  0  0  0  0  0  0
   -5.1342  -19.8540   20.4614 H   0  0  0  0  0  0  0  0  0  0  0  0
   -6.8617  -21.4831   19.8123 H   0  0  0  0  0  0  0  0  0  0  0  0
   -9.5078  -18.4875   18.7628 H   0  0  0  0  0  0  0  0  0  0  0  0
   -7.8762  -16.7095   19.3475 H   0  0  0  0  0  0  0  0  0  0  0  0
    2.2804  -15.8000   19.5242 H   0  0  0  0  0  0  0  0  0  0  0  0
    2.6616  -15.9370   17.7830 H   0  0  0  0  0  0  0  0  0  0  0  0
    3.4940  -13.4087   18.0701 H   0  0  0  0  0  0  0  0  0  0  0  0
    3.1306  -14.2344   19.7362 H   0  0  0  0  0  0  0  0  0  0  0  0
    3.9389  -13.7923   22.0233 H   0  0  0  0  0  0  0  0  0  0  0  0
    6.2233  -12.5392   22.7906 H   0  0  0  0  0  0  0  0  0  0  0  0
    5.9894  -12.1282   18.8456 H   0  0  0  0  0  0  0  0  0  0  0  0
  1  2  1  0
  2  3  1  0
  3  4  1  0
  4  5  1  0
  5  6  1  0
  6  7  2  0
  6  8  1  0
  8  9  2  0
  9 10  1  0
 10 11  2  0
 11 12  1  0
 12 13  2  0
  2 14  1  0
 14 15  2  0
 14 16  1  0
 16 17  1  0
 17 18  1  0
 18 19  2  0
 19 20  1  0
 20 21  2  0
 21 22  1  0
 13  8  1  0
 22 18  1  0
  1 23  1  0
  1 24  1  0
  1 25  1  0
  3 26  1  0
  3 27  1  0
  4 28  1  0
  4 29  1  0
  5 30  1  0
  9 31  1  0
 10 32  1  0
 12 33  1  0
 13 34  1  0
 16 35  1  0
 16 36  1  0
 17 37  1  0
 17 38  1  0
 19 39  1  0
 20 40  1  0
 22 41  1  0
M  END
>  <Energy>  (446) 
382.00193859665808

>  <compound_id>  (446) 
5308

>  <target_id>  (446) 
1

>  <reference_id>  (446) 
112

>  <inspiration_ids>  (446) 
[60, 112]

>  <energy_score>  (446) 
363.7955813478236

>  <distance_score>  (446) 
14.748000392343144

>  <path>  (446) 
/opt/xchem-fragalysis-2/maxwin/BulkDock/SCRATCH/511018/C5308-P112/C5308-P112.minimised.mol

>  <scratch_subdir>  (446) 
/opt/xchem-fragalysis-2/maxwin/BulkDock/SCRATCH/511018/C5308-P112

>  <fragmenstein_runtime>  (446) 
11.9193754196167

>  <fragmenstein_outcome>  (446) 
too moved

>  <fragmenstein_mode>  (446) 
expansion

>  <fragmenstein_error>  (446) 


$$$$
C5309-P60
     RDKit          3D

 41 42  0  0  0  0  0  0  0  0999 V2000
    9.5502  -13.2884   16.7935 C   0  0  0  0  0  0  0  0  0  0  0  0
   11.0198  -13.3460   16.5975 N   0  0  0  0  0  0  0  0  0  0  0  0
   10.6853  -14.8935   16.2964 C   0  0  0  0  0  0  0  0  0  0  0  0
   10.1925  -15.4827   14.9185 C   0  0  0  0  0  0  0  0  0  0  0  0
    9.2204  -16.6530   14.9009 N   0  0  0  0  0  0  0  0  0  0  0  0
    9.4009  -18.0460   14.4764 C   0  0  0  0  0  0  0  0  0  0  0  0
   10.3830  -18.6304   14.1136 O   0  0  0  0  0  0  0  0  0  0  0  0
    8.1200  -18.9155   14.3606 C   0  0  0  0  0  0  0  0  0  0  0  0
    7.5284  -19.5391   15.4637 C   0  0  0  0  0  0  0  0  0  0  0  0
    6.4270  -20.4072   15.2802 C   0  0  0  0  0  0  0  0  0  0  0  0
    5.8212  -20.6426   14.1048 N   0  0  0  0  0  0  0  0  0  0  0  0
    6.4530  -20.1242   13.0341 C   0  0  0  0  0  0  0  0  0  0  0  0
    7.6126  -19.3275   13.1074 C   0  0  0  0  0  0  0  0  0  0  0  0
    8.4371  -18.9905   11.6189 Cl  0  0  0  0  0  0  0  0  0  0  0  0
   11.4540  -12.2620   15.6962 C   0  0  0  0  0  0  0  0  0  0  0  0
   11.5782  -12.2458   14.4985 O   0  0  0  0  0  0  0  0  0  0  0  0
   11.8950  -10.9950   16.6050 C   0  0  0  0  0  0  0  0  0  0  0  0
   12.0247   -9.4438   15.8882 C   0  0  0  0  0  0  0  0  0  0  0  0
   12.3199   -7.4360   16.1211 C   0  0  0  0  0  0  0  0  0  0  0  0
   13.2364   -6.2240   16.1335 C   0  0  0  0  0  0  0  0  0  0  0  0
   12.8058   -5.0041   16.6217 C   0  0  0  0  0  0  0  0  0  0  0  0
   11.5331   -5.0966   16.4278 N   0  0  0  0  0  0  0  0  0  0  0  0
   11.3649   -6.4347   15.9687 N   0  0  0  0  0  0  0  0  0  0  0  0
    9.1989  -13.8294   17.6827 H   0  0  0  0  0  0  0  0  0  0  0  0
    9.3192  -12.2400   17.0326 H   0  0  0  0  0  0  0  0  0  0  0  0
    8.9612  -13.4710   15.8879 H   0  0  0  0  0  0  0  0  0  0  0  0
   11.7114  -15.2904   16.3652 H   0  0  0  0  0  0  0  0  0  0  0  0
   10.2114  -15.3993   17.1543 H   0  0  0  0  0  0  0  0  0  0  0  0
   11.0678  -15.8158   14.3486 H   0  0  0  0  0  0  0  0  0  0  0  0
    9.7164  -14.6961   14.3272 H   0  0  0  0  0  0  0  0  0  0  0  0
    8.2297  -16.4788   15.0616 H   0  0  0  0  0  0  0  0  0  0  0  0
    7.9642  -19.4135   16.4516 H   0  0  0  0  0  0  0  0  0  0  0  0
    6.0059  -20.9634   16.1144 H   0  0  0  0  0  0  0  0  0  0  0  0
    6.0331  -20.4133   12.0734 H   0  0  0  0  0  0  0  0  0  0  0  0
   11.1856  -10.9441   17.4410 H   0  0  0  0  0  0  0  0  0  0  0  0
   12.8741  -11.3369   16.9747 H   0  0  0  0  0  0  0  0  0  0  0  0
   10.9098   -9.5815   15.7333 H   0  0  0  0  0  0  0  0  0  0  0  0
   12.5548   -9.7317   14.9651 H   0  0  0  0  0  0  0  0  0  0  0  0
   14.2078   -6.1447   15.6645 H   0  0  0  0  0  0  0  0  0  0  0  0
   13.2973   -4.0677   16.8368 H   0  0  0  0  0  0  0  0  0  0  0  0
   10.5114   -6.5891   15.4478 H   0  0  0  0  0  0  0  0  0  0  0  0
  1  2  1  0
  2  3  1  0
  3  4  1  0
  4  5  1  0
  5  6  1  0
  6  7  2  0
  6  8  1  0
  8  9  2  0
  9 10  1  0
 10 11  2  0
 11 12  1  0
 12 13  2  0
 13 14  1  0
  2 15  1  0
 15 16  2  0
 15 17  1  0
 17 18  1  0
 18 19  1  0
 19 20  2  0
 20 21  1  0
 21 22  2  0
 22 23  1  0
 13  8  1  0
 23 19  1  0
  1 24  1  0
  1 25  1  0
  1 26  1  0
  3 27  1  0
  3 28  1  0
  4 29  1  0
  4 30  1  0
  5 31  1  0
  9 32  1  0
 10 33  1  0
 12 34  1  0
 17 35  1  0
 17 36  1  0
 18 37  1  0
 18 38  1  0
 20 39  1  0
 21 40  1  0
 23 41  1  0
M  END
>  <Energy>  (447) 
320.6616209781406

>  <compound_id>  (447) 
5309

>  <target_id>  (447) 
1

>  <reference_id>  (447) 
60

>  <inspiration_ids>  (447) 
[60, 112]

>  <energy_score>  (447) 
286.75750531577955

>  <distance_score>  (447) 
15.634691003831389

>  <path>  (447) 
/opt/xchem-fragalysis-2/maxwin/BulkDock/SCRATCH/511018/C5309-P60/C5309-P60.minimised.mol

>  <scratch_subdir>  (447) 
/opt/xchem-fragalysis-2/maxwin/BulkDock/SCRATCH/511018/C5309-P60

>  <fragmenstein_runtime>  (447) 
16.072490453720093

>  <fragmenstein_outcome>  (447) 
too moved

>  <fragmenstein_mode>  (447) 
expansion

>  <fragmenstein_error>  (447) 


$$$$
C5309-P112
     RDKit          3D

 41 42  0  0  0  0  0  0  0  0999 V2000
    4.7705  -10.1767   13.4306 C   0  0  0  0  0  0  0  0  0  0  0  0
    5.0579   -9.1165   12.5525 N   0  0  0  0  0  0  0  0  0  0  0  0
    3.9676  -10.2135   11.2935 C   0  0  0  0  0  0  0  0  0  0  0  0
    2.4613  -11.6215   10.8375 C   0  0  0  0  0  0  0  0  0  0  0  0
    1.4308  -13.3573   11.2339 N   0  0  0  0  0  0  0  0  0  0  0  0
    1.6979  -15.1786   10.5905 C   0  0  0  0  0  0  0  0  0  0  0  0
    2.5493  -15.4227    9.7407 O   0  0  0  0  0  0  0  0  0  0  0  0
    0.8520  -16.5269   10.9001 C   0  0  0  0  0  0  0  0  0  0  0  0
    0.1137  -17.0110    9.8012 C   0  0  0  0  0  0  0  0  0  0  0  0
   -0.4804  -18.2953    9.6466 C   0  0  0  0  0  0  0  0  0  0  0  0
   -0.2402  -19.2825   10.5086 N   0  0  0  0  0  0  0  0  0  0  0  0
    0.8494  -19.0269   11.2447 C   0  0  0  0  0  0  0  0  0  0  0  0
    1.5045  -17.7606   11.2308 C   0  0  0  0  0  0  0  0  0  0  0  0
    3.2763  -17.9755   11.1101 Cl  0  0  0  0  0  0  0  0  0  0  0  0
    6.7659   -8.7846   12.5796 C   0  0  0  0  0  0  0  0  0  0  0  0
    7.6236   -9.2675   11.8529 O   0  0  0  0  0  0  0  0  0  0  0  0
    7.5686   -7.6401   13.9708 C   0  0  0  0  0  0  0  0  0  0  0  0
    9.3068   -7.5521   14.9247 C   0  0  0  0  0  0  0  0  0  0  0  0
   10.8081   -6.1831   15.3105 C   0  0  0  0  0  0  0  0  0  0  0  0
   12.0446   -6.0495   15.9579 C   0  0  0  0  0  0  0  0  0  0  0  0
   12.6063   -4.7695   15.8987 C   0  0  0  0  0  0  0  0  0  0  0  0
   11.8442   -3.9466   15.2069 N   0  0  0  0  0  0  0  0  0  0  0  0
   10.8406   -4.7380   14.8166 N   0  0  0  0  0  0  0  0  0  0  0  0
    3.7889  -10.2291   13.8542 H   0  0  0  0  0  0  0  0  0  0  0  0
    5.2583   -9.7852   14.3299 H   0  0  0  0  0  0  0  0  0  0  0  0
    5.3832  -11.0710   13.3213 H   0  0  0  0  0  0  0  0  0  0  0  0
    4.4960  -10.1140   10.3450 H   0  0  0  0  0  0  0  0  0  0  0  0
    3.2997   -9.3640   11.0752 H   0  0  0  0  0  0  0  0  0  0  0  0
    2.8088  -11.8424    9.8176 H   0  0  0  0  0  0  0  0  0  0  0  0
    1.6270  -10.9142   10.9650 H   0  0  0  0  0  0  0  0  0  0  0  0
    0.6319  -13.3432   11.8671 H   0  0  0  0  0  0  0  0  0  0  0  0
    0.4288  -16.6167    8.8250 H   0  0  0  0  0  0  0  0  0  0  0  0
   -1.0487  -18.5565    8.7587 H   0  0  0  0  0  0  0  0  0  0  0  0
    1.3283  -19.9002   11.6806 H   0  0  0  0  0  0  0  0  0  0  0  0
    6.8737   -7.7858   14.8091 H   0  0  0  0  0  0  0  0  0  0  0  0
    7.4091   -6.6259   13.5858 H   0  0  0  0  0  0  0  0  0  0  0  0
    9.6694   -8.2962   14.2103 H   0  0  0  0  0  0  0  0  0  0  0  0
    9.3016   -8.3458   15.6686 H   0  0  0  0  0  0  0  0  0  0  0  0
   12.4837   -6.8935   16.3958 H   0  0  0  0  0  0  0  0  0  0  0  0
   13.5381   -4.4230   16.3237 H   0  0  0  0  0  0  0  0  0  0  0  0
   10.0147   -4.3107   14.4230 H   0  0  0  0  0  0  0  0  0  0  0  0
  1  2  1  0
  2  3  1  0
  3  4  1  0
  4  5  1  0
  5  6  1  0
  6  7  2  0
  6  8  1  0
  8  9  2  0
  9 10  1  0
 10 11  2  0
 11 12  1  0
 12 13  2  0
 13 14  1  0
  2 15  1  0
 15 16  2  0
 15 17  1  0
 17 18  1  0
 18 19  1  0
 19 20  2  0
 20 21  1  0
 21 22  2  0
 22 23  1  0
 13  8  1  0
 23 19  1  0
  1 24  1  0
  1 25  1  0
  1 26  1  0
  3 27  1  0
  3 28  1  0
  4 29  1  0
  4 30  1  0
  5 31  1  0
  9 32  1  0
 10 33  1  0
 12 34  1  0
 17 35  1  0
 17 36  1  0
 18 37  1  0
 18 38  1  0
 20 39  1  0
 21 40  1  0
 23 41  1  0
M  END
>  <Energy>  (448) 
860.31543927922587

>  <compound_id>  (448) 
5309

>  <target_id>  (448) 
1

>  <reference_id>  (448) 
112

>  <inspiration_ids>  (448) 
[60, 112]

>  <energy_score>  (448) 
826.4113236168637

>  <distance_score>  (448) 
13.022714859197638

>  <path>  (448) 
/opt/xchem-fragalysis-2/maxwin/BulkDock/SCRATCH/511018/C5309-P112/C5309-P112.minimised.mol

>  <scratch_subdir>  (448) 
/opt/xchem-fragalysis-2/maxwin/BulkDock/SCRATCH/511018/C5309-P112

>  <fragmenstein_runtime>  (448) 
9.907302856445312

>  <fragmenstein_outcome>  (448) 
too moved

>  <fragmenstein_mode>  (448) 
expansion

>  <fragmenstein_error>  (448) 


$$$$
C5310-P60
     RDKit          3D

 43 44  0  0  0  0  0  0  0  0999 V2000
    6.9617   -8.0755   12.5986 C   0  0  0  0  0  0  0  0  0  0  0  0
    6.8849   -8.5892   13.9521 N   0  0  0  0  0  0  0  0  0  0  0  0
    5.6401   -9.4997   13.2722 C   0  0  0  0  0  0  0  0  0  0  0  0
    4.4126   -8.9385   12.2763 C   0  0  0  0  0  0  0  0  0  0  0  0
    3.4459   -9.8816   11.5939 N   0  0  0  0  0  0  0  0  0  0  0  0
    2.0382   -9.7039   11.2065 C   0  0  0  0  0  0  0  0  0  0  0  0
    1.3274   -8.7361   11.2648 O   0  0  0  0  0  0  0  0  0  0  0  0
    1.2469  -10.9734   10.7316 C   0  0  0  0  0  0  0  0  0  0  0  0
   -0.1043  -11.1138   11.1658 C   0  0  0  0  0  0  0  0  0  0  0  0
   -0.8468  -12.2706   10.9024 C   0  0  0  0  0  0  0  0  0  0  0  0
   -0.3654  -13.3004   10.1908 N   0  0  0  0  0  0  0  0  0  0  0  0
    0.8973  -13.1382    9.7233 C   0  0  0  0  0  0  0  0  0  0  0  0
    1.7317  -11.9998    9.9082 C   0  0  0  0  0  0  0  0  0  0  0  0
    3.0646  -12.0079    9.4335 N   0  0  0  0  0  0  0  0  0  0  0  0
    8.2780   -9.0136   14.4399 C   0  0  0  0  0  0  0  0  0  0  0  0
    8.8420  -10.0904   14.3680 O   0  0  0  0  0  0  0  0  0  0  0  0
    9.3148   -7.6723   15.1265 C   0  0  0  0  0  0  0  0  0  0  0  0
   11.0184   -6.7114   15.7918 C   0  0  0  0  0  0  0  0  0  0  0  0
   11.5344   -5.0347   16.1955 C   0  0  0  0  0  0  0  0  0  0  0  0
   12.5754   -4.5174   16.9481 C   0  0  0  0  0  0  0  0  0  0  0  0
   12.5785   -3.1346   16.6696 C   0  0  0  0  0  0  0  0  0  0  0  0
   11.6249   -2.7768   15.8048 N   0  0  0  0  0  0  0  0  0  0  0  0
   11.0660   -3.9529   15.4681 N   0  0  0  0  0  0  0  0  0  0  0  0
    6.1375   -7.4016   12.3520 H   0  0  0  0  0  0  0  0  0  0  0  0
    7.2833   -8.7836   11.8250 H   0  0  0  0  0  0  0  0  0  0  0  0
    7.7282   -7.3353   12.6630 H   0  0  0  0  0  0  0  0  0  0  0  0
    5.1311   -9.9052   14.1515 H   0  0  0  0  0  0  0  0  0  0  0  0
    6.1223  -10.3646   12.7914 H   0  0  0  0  0  0  0  0  0  0  0  0
    4.8378   -8.4262   11.4092 H   0  0  0  0  0  0  0  0  0  0  0  0
    3.8196   -8.2091   12.8384 H   0  0  0  0  0  0  0  0  0  0  0  0
    3.7476  -10.8084   11.3272 H   0  0  0  0  0  0  0  0  0  0  0  0
   -0.5705  -10.3182   11.7410 H   0  0  0  0  0  0  0  0  0  0  0  0
   -1.8597  -12.3891   11.2767 H   0  0  0  0  0  0  0  0  0  0  0  0
    1.2635  -13.9919    9.1570 H   0  0  0  0  0  0  0  0  0  0  0  0
    3.1995  -12.6489    8.6537 H   0  0  0  0  0  0  0  0  0  0  0  0
    3.3903  -11.0725    9.1893 H   0  0  0  0  0  0  0  0  0  0  0  0
    9.5182   -8.5536   15.7355 H   0  0  0  0  0  0  0  0  0  0  0  0
    8.3975   -7.0589   15.1674 H   0  0  0  0  0  0  0  0  0  0  0  0
   10.8344   -6.3252   14.8644 H   0  0  0  0  0  0  0  0  0  0  0  0
   11.9974   -7.2251   15.8990 H   0  0  0  0  0  0  0  0  0  0  0  0
   13.2548   -5.0431   17.5958 H   0  0  0  0  0  0  0  0  0  0  0  0
   13.2385   -2.3763   17.0699 H   0  0  0  0  0  0  0  0  0  0  0  0
   10.3334   -3.9895   14.7654 H   0  0  0  0  0  0  0  0  0  0  0  0
  1  2  1  0
  2  3  1  0
  3  4  1  0
  4  5  1  0
  5  6  1  0
  6  7  2  0
  6  8  1  0
  8  9  2  0
  9 10  1  0
 10 11  2  0
 11 12  1  0
 12 13  2  0
 13 14  1  0
  2 15  1  0
 15 16  2  0
 15 17  1  0
 17 18  1  0
 18 19  1  0
 19 20  2  0
 20 21  1  0
 21 22  2  0
 22 23  1  0
 13  8  1  0
 23 19  1  0
  1 24  1  0
  1 25  1  0
  1 26  1  0
  3 27  1  0
  3 28  1  0
  4 29  1  0
  4 30  1  0
  5 31  1  0
  9 32  1  0
 10 33  1  0
 12 34  1  0
 14 35  1  0
 14 36  1  0
 17 37  1  0
 17 38  1  0
 18 39  1  0
 18 40  1  0
 20 41  1  0
 21 42  1  0
 23 43  1  0
M  END
>  <Energy>  (449) 
388.09932852260971

>  <compound_id>  (449) 
5310

>  <target_id>  (449) 
1

>  <reference_id>  (449) 
60

>  <inspiration_ids>  (449) 
[60, 112]

>  <energy_score>  (449) 
297.66421909040264

>  <distance_score>  (449) 
14.091092379910526

>  <path>  (449) 
/opt/xchem-fragalysis-2/maxwin/BulkDock/SCRATCH/511018/C5310-P60/C5310-P60.minimised.mol

>  <scratch_subdir>  (449) 
/opt/xchem-fragalysis-2/maxwin/BulkDock/SCRATCH/511018/C5310-P60

>  <fragmenstein_runtime>  (449) 
18.434651374816895

>  <fragmenstein_outcome>  (449) 
too moved

>  <fragmenstein_mode>  (449) 
expansion

>  <fragmenstein_error>  (449) 


$$$$
C5310-P112
     RDKit          3D

 43 44  0  0  0  0  0  0  0  0999 V2000
    3.0556  -14.2635    7.0426 C   0  0  0  0  0  0  0  0  0  0  0  0
    3.4228  -14.1669    8.4875 N   0  0  0  0  0  0  0  0  0  0  0  0
    2.5502  -15.5086    8.5622 C   0  0  0  0  0  0  0  0  0  0  0  0
    1.0623  -15.2769    9.0312 C   0  0  0  0  0  0  0  0  0  0  0  0
    0.1970  -16.4153    9.4073 N   0  0  0  0  0  0  0  0  0  0  0  0
   -0.8403  -17.0983    8.6723 C   0  0  0  0  0  0  0  0  0  0  0  0
   -1.2098  -16.9685    7.5391 O   0  0  0  0  0  0  0  0  0  0  0  0
   -1.7050  -18.0896    9.4711 C   0  0  0  0  0  0  0  0  0  0  0  0
   -3.0871  -18.0797    9.1595 C   0  0  0  0  0  0  0  0  0  0  0  0
   -3.9761  -18.8938    9.8491 C   0  0  0  0  0  0  0  0  0  0  0  0
   -3.5977  -19.7341   10.8230 N   0  0  0  0  0  0  0  0  0  0  0  0
   -2.2708  -19.7540   11.1092 C   0  0  0  0  0  0  0  0  0  0  0  0
   -1.2709  -18.9901   10.4589 C   0  0  0  0  0  0  0  0  0  0  0  0
    0.0440  -18.9808   10.9665 N   0  0  0  0  0  0  0  0  0  0  0  0
    4.8608  -13.9577    8.6268 C   0  0  0  0  0  0  0  0  0  0  0  0
    5.7618  -14.7547    8.7432 O   0  0  0  0  0  0  0  0  0  0  0  0
    5.2126  -12.4346    8.6963 C   0  0  0  0  0  0  0  0  0  0  0  0
    5.7937  -11.8677   10.0334 C   0  0  0  0  0  0  0  0  0  0  0  0
    7.2166  -12.1550   10.3917 C   0  0  0  0  0  0  0  0  0  0  0  0
    8.0638  -11.5555   11.3067 C   0  0  0  0  0  0  0  0  0  0  0  0
    9.2559  -12.2963   11.2239 C   0  0  0  0  0  0  0  0  0  0  0  0
    9.1760  -13.3012   10.3466 N   0  0  0  0  0  0  0  0  0  0  0  0
    7.9260  -13.1983    9.8599 N   0  0  0  0  0  0  0  0  0  0  0  0
    1.9833  -14.2363    6.8151 H   0  0  0  0  0  0  0  0  0  0  0  0
    3.6131  -15.0470    6.5071 H   0  0  0  0  0  0  0  0  0  0  0  0
    3.4347  -13.3354    6.5892 H   0  0  0  0  0  0  0  0  0  0  0  0
    2.6464  -16.2431    7.7450 H   0  0  0  0  0  0  0  0  0  0  0  0
    3.0374  -16.0489    9.3864 H   0  0  0  0  0  0  0  0  0  0  0  0
    0.5184  -14.7451    8.2438 H   0  0  0  0  0  0  0  0  0  0  0  0
    1.0607  -14.6167    9.9034 H   0  0  0  0  0  0  0  0  0  0  0  0
    0.1767  -16.7273   10.3785 H   0  0  0  0  0  0  0  0  0  0  0  0
   -3.4691  -17.4111    8.3915 H   0  0  0  0  0  0  0  0  0  0  0  0
   -5.0391  -18.8652    9.6354 H   0  0  0  0  0  0  0  0  0  0  0  0
   -2.0100  -20.4242   11.9277 H   0  0  0  0  0  0  0  0  0  0  0  0
    0.2926  -19.8341   11.4693 H   0  0  0  0  0  0  0  0  0  0  0  0
    0.7508  -18.7719   10.2617 H   0  0  0  0  0  0  0  0  0  0  0  0
    5.9034  -12.2280    7.8697 H   0  0  0  0  0  0  0  0  0  0  0  0
    4.2942  -11.8735    8.4806 H   0  0  0  0  0  0  0  0  0  0  0  0
    5.1700  -12.2272   10.8444 H   0  0  0  0  0  0  0  0  0  0  0  0
    5.6756  -10.7768   10.0016 H   0  0  0  0  0  0  0  0  0  0  0  0
    7.8458  -10.7153   11.9523 H   0  0  0  0  0  0  0  0  0  0  0  0
   10.1738  -12.1511   11.7787 H   0  0  0  0  0  0  0  0  0  0  0  0
    7.6006  -13.8942    9.1910 H   0  0  0  0  0  0  0  0  0  0  0  0
  1  2  1  0
  2  3  1  0
  3  4  1  0
  4  5  1  0
  5  6  1  0
  6  7  2  0
  6  8  1  0
  8  9  2  0
  9 10  1  0
 10 11  2  0
 11 12  1  0
 12 13  2  0
 13 14  1  0
  2 15  1  0
 15 16  2  0
 15 17  1  0
 17 18  1  0
 18 19  1  0
 19 20  2  0
 20 21  1  0
 21 22  2  0
 22 23  1  0
 13  8  1  0
 23 19  1  0
  1 24  1  0
  1 25  1  0
  1 26  1  0
  3 27  1  0
  3 28  1  0
  4 29  1  0
  4 30  1  0
  5 31  1  0
  9 32  1  0
 10 33  1  0
 12 34  1  0
 14 35  1  0
 14 36  1  0
 17 37  1  0
 17 38  1  0
 18 39  1  0
 18 40  1  0
 20 41  1  0
 21 42  1  0
 23 43  1  0
M  END
>  <Energy>  (450) 
125.92151394324048

>  <compound_id>  (450) 
5310

>  <target_id>  (450) 
1

>  <reference_id>  (450) 
112

>  <inspiration_ids>  (450) 
[60, 112]

>  <energy_score>  (450) 
35.48640451103316

>  <distance_score>  (450) 
15.169091254991281

>  <path>  (450) 
/opt/xchem-fragalysis-2/maxwin/BulkDock/SCRATCH/511018/C5310-P112/C5310-P112.minimised.mol

>  <scratch_subdir>  (450) 
/opt/xchem-fragalysis-2/maxwin/BulkDock/SCRATCH/511018/C5310-P112

>  <fragmenstein_runtime>  (450) 
17.36044430732727

>  <fragmenstein_outcome>  (450) 
too moved

>  <fragmenstein_mode>  (450) 
expansion

>  <fragmenstein_error>  (450) 


$$$$
C5311-P60
     RDKit          3D

 45 46  0  0  0  0  0  0  0  0999 V2000
   -7.9382  -25.7806   10.8050 C   0  0  0  0  0  0  0  0  0  0  0  0
   -6.8733  -24.8208   10.7748 O   0  0  0  0  0  0  0  0  0  0  0  0
   -5.6543  -25.2850   11.2484 C   0  0  0  0  0  0  0  0  0  0  0  0
   -4.5233  -24.4591   11.1272 C   0  0  0  0  0  0  0  0  0  0  0  0
   -3.3067  -24.8776   11.6940 C   0  0  0  0  0  0  0  0  0  0  0  0
   -1.9794  -24.1492   11.5335 C   0  0  0  0  0  0  0  0  0  0  0  0
   -1.1934  -24.7329   10.8423 O   0  0  0  0  0  0  0  0  0  0  0  0
   -1.8523  -22.9167   12.2646 N   0  0  0  0  0  0  0  0  0  0  0  0
   -0.7418  -21.9210   12.3200 C   0  0  0  0  0  0  0  0  0  0  0  0
    0.6106  -22.4039   13.0237 C   0  0  0  0  0  0  0  0  0  0  0  0
    2.0887  -22.0399   12.5415 N   0  0  0  0  0  0  0  0  0  0  0  0
    1.6856  -22.8903   11.3907 C   0  0  0  0  0  0  0  0  0  0  0  0
    2.3119  -20.6077   12.6283 C   0  0  0  0  0  0  0  0  0  0  0  0
    2.1388  -19.7391   11.8118 O   0  0  0  0  0  0  0  0  0  0  0  0
    2.9801  -20.2404   14.0031 C   0  0  0  0  0  0  0  0  0  0  0  0
    3.9963  -19.0205   14.0042 C   0  0  0  0  0  0  0  0  0  0  0  0
    5.4639  -19.3584   14.0003 C   0  0  0  0  0  0  0  0  0  0  0  0
    6.5748  -18.6709   14.4564 C   0  0  0  0  0  0  0  0  0  0  0  0
    7.6675  -19.4942   14.1371 C   0  0  0  0  0  0  0  0  0  0  0  0
    7.2931  -20.6160   13.5216 N   0  0  0  0  0  0  0  0  0  0  0  0
    5.9582  -20.4968   13.4169 N   0  0  0  0  0  0  0  0  0  0  0  0
   -3.2770  -26.1267   12.3180 C   0  0  0  0  0  0  0  0  0  0  0  0
   -4.4424  -26.8817   12.3706 C   0  0  0  0  0  0  0  0  0  0  0  0
   -5.6275  -26.4891   11.8560 N   0  0  0  0  0  0  0  0  0  0  0  0
   -7.6818  -26.6627   10.2086 H   0  0  0  0  0  0  0  0  0  0  0  0
   -8.2008  -26.0641   11.8268 H   0  0  0  0  0  0  0  0  0  0  0  0
   -8.8177  -25.3135   10.3517 H   0  0  0  0  0  0  0  0  0  0  0  0
   -4.5770  -23.5134   10.6000 H   0  0  0  0  0  0  0  0  0  0  0  0
   -2.7610  -22.6786   12.6790 H   0  0  0  0  0  0  0  0  0  0  0  0
   -0.5901  -21.5755   11.2956 H   0  0  0  0  0  0  0  0  0  0  0  0
   -1.1412  -21.0651   12.8717 H   0  0  0  0  0  0  0  0  0  0  0  0
    0.5582  -23.4735   13.2911 H   0  0  0  0  0  0  0  0  0  0  0  0
    0.5851  -21.9383   14.0161 H   0  0  0  0  0  0  0  0  0  0  0  0
    1.0503  -22.3930   10.6539 H   0  0  0  0  0  0  0  0  0  0  0  0
    1.4356  -23.9371   11.6094 H   0  0  0  0  0  0  0  0  0  0  0  0
    2.6288  -22.9838   10.8308 H   0  0  0  0  0  0  0  0  0  0  0  0
    2.1464  -19.9705   14.6605 H   0  0  0  0  0  0  0  0  0  0  0  0
    3.4524  -21.1308   14.4331 H   0  0  0  0  0  0  0  0  0  0  0  0
    3.8185  -18.4510   14.9212 H   0  0  0  0  0  0  0  0  0  0  0  0
    3.7989  -18.3626   13.1514 H   0  0  0  0  0  0  0  0  0  0  0  0
    6.5958  -17.7021   14.9332 H   0  0  0  0  0  0  0  0  0  0  0  0
    8.7197  -19.3210   14.3227 H   0  0  0  0  0  0  0  0  0  0  0  0
    5.4449  -21.2323   12.9394 H   0  0  0  0  0  0  0  0  0  0  0  0
   -2.3519  -26.5164   12.7306 H   0  0  0  0  0  0  0  0  0  0  0  0
   -4.4464  -27.8601   12.8436 H   0  0  0  0  0  0  0  0  0  0  0  0
  1  2  1  0
  2  3  1  0
  3  4  2  0
  4  5  1  0
  5  6  1  0
  6  7  2  0
  6  8  1  0
  8  9  1  0
  9 10  1  0
 10 11  1  0
 11 12  1  0
 11 13  1  0
 13 14  2  0
 13 15  1  0
 15 16  1  0
 16 17  1  0
 17 18  2  0
 18 19  1  0
 19 20  2  0
 20 21  1  0
  5 22  2  0
 22 23  1  0
 23 24  2  0
 24  3  1  0
 21 17  1  0
  1 25  1  0
  1 26  1  0
  1 27  1  0
  4 28  1  0
  8 29  1  0
  9 30  1  0
  9 31  1  0
 10 32  1  0
 10 33  1  0
 12 34  1  0
 12 35  1  0
 12 36  1  0
 15 37  1  0
 15 38  1  0
 16 39  1  0
 16 40  1  0
 18 41  1  0
 19 42  1  0
 21 43  1  0
 22 44  1  0
 23 45  1  0
M  END
>  <Energy>  (451) 
79.079443988267613

>  <compound_id>  (451) 
5311

>  <target_id>  (451) 
1

>  <reference_id>  (451) 
60

>  <inspiration_ids>  (451) 
[60, 112]

>  <energy_score>  (451) 
64.74309486975548

>  <distance_score>  (451) 
15.677241353230743

>  <path>  (451) 
/opt/xchem-fragalysis-2/maxwin/BulkDock/SCRATCH/511018/C5311-P60/C5311-P60.minimised.mol

>  <scratch_subdir>  (451) 
/opt/xchem-fragalysis-2/maxwin/BulkDock/SCRATCH/511018/C5311-P60

>  <fragmenstein_runtime>  (451) 
20.528530836105347

>  <fragmenstein_outcome>  (451) 
too moved

>  <fragmenstein_mode>  (451) 
expansion

>  <fragmenstein_error>  (451) 


$$$$
C5311-P112
     RDKit          3D

 45 46  0  0  0  0  0  0  0  0999 V2000
   -6.5354  -17.7399   17.9987 C   0  0  0  0  0  0  0  0  0  0  0  0
   -5.1191  -17.7588   18.2150 O   0  0  0  0  0  0  0  0  0  0  0  0
   -4.5386  -16.4957   18.3265 C   0  0  0  0  0  0  0  0  0  0  0  0
   -3.1287  -16.4170   18.4472 C   0  0  0  0  0  0  0  0  0  0  0  0
   -2.3581  -15.1717   18.3293 C   0  0  0  0  0  0  0  0  0  0  0  0
   -0.5761  -14.7241   17.8217 C   0  0  0  0  0  0  0  0  0  0  0  0
   -0.5685  -13.6393   17.3197 O   0  0  0  0  0  0  0  0  0  0  0  0
    0.9533  -15.6699   18.1775 N   0  0  0  0  0  0  0  0  0  0  0  0
    2.7194  -15.1910   18.0273 C   0  0  0  0  0  0  0  0  0  0  0  0
    4.0184  -13.8973   18.8754 C   0  0  0  0  0  0  0  0  0  0  0  0
    4.9970  -13.5962   20.4966 N   0  0  0  0  0  0  0  0  0  0  0  0
    3.7177  -13.5839   20.9835 C   0  0  0  0  0  0  0  0  0  0  0  0
    5.9538  -12.5482   20.3782 C   0  0  0  0  0  0  0  0  0  0  0  0
    5.8502  -11.3604   20.5908 O   0  0  0  0  0  0  0  0  0  0  0  0
    7.3600  -12.9738   20.0476 C   0  0  0  0  0  0  0  0  0  0  0  0
    8.2266  -13.2030   21.3161 C   0  0  0  0  0  0  0  0  0  0  0  0
    9.7021  -12.9568   21.1356 C   0  0  0  0  0  0  0  0  0  0  0  0
   10.4619  -12.3047   20.1827 C   0  0  0  0  0  0  0  0  0  0  0  0
   11.7884  -12.4185   20.6335 C   0  0  0  0  0  0  0  0  0  0  0  0
   11.8770  -13.0869   21.7831 N   0  0  0  0  0  0  0  0  0  0  0  0
   10.6051  -13.4082   22.0645 N   0  0  0  0  0  0  0  0  0  0  0  0
   -3.2202  -14.0755   18.2050 C   0  0  0  0  0  0  0  0  0  0  0  0
   -4.6216  -14.2373   18.1641 C   0  0  0  0  0  0  0  0  0  0  0  0
   -5.2992  -15.4081   18.2122 N   0  0  0  0  0  0  0  0  0  0  0  0
   -6.8852  -18.7723   18.0678 H   0  0  0  0  0  0  0  0  0  0  0  0
   -6.7655  -17.3381   17.0076 H   0  0  0  0  0  0  0  0  0  0  0  0
   -7.0485  -17.1703   18.7812 H   0  0  0  0  0  0  0  0  0  0  0  0
   -2.6628  -17.3853   18.3869 H   0  0  0  0  0  0  0  0  0  0  0  0
    0.7175  -16.5004   18.6652 H   0  0  0  0  0  0  0  0  0  0  0  0
    2.2805  -14.3072   17.5867 H   0  0  0  0  0  0  0  0  0  0  0  0
    2.6967  -15.5985   19.0138 H   0  0  0  0  0  0  0  0  0  0  0  0
    3.9033  -12.9222   18.4102 H   0  0  0  0  0  0  0  0  0  0  0  0
    4.7595  -14.3544   18.2899 H   0  0  0  0  0  0  0  0  0  0  0  0
    3.0033  -14.2566   20.5399 H   0  0  0  0  0  0  0  0  0  0  0  0
    3.5297  -12.5658   21.2953 H   0  0  0  0  0  0  0  0  0  0  0  0
    3.8476  -13.9792   22.0075 H   0  0  0  0  0  0  0  0  0  0  0  0
    7.8054  -12.1760   19.4482 H   0  0  0  0  0  0  0  0  0  0  0  0
    7.3605  -13.9598   19.6366 H   0  0  0  0  0  0  0  0  0  0  0  0
    8.1052  -14.2583   21.6057 H   0  0  0  0  0  0  0  0  0  0  0  0
    7.8424  -12.6547   22.1834 H   0  0  0  0  0  0  0  0  0  0  0  0
   10.1119  -11.8102   19.2872 H   0  0  0  0  0  0  0  0  0  0  0  0
   12.6935  -12.0405   20.1774 H   0  0  0  0  0  0  0  0  0  0  0  0
   10.4206  -13.9338   22.9129 H   0  0  0  0  0  0  0  0  0  0  0  0
   -2.8117  -13.0779   18.0625 H   0  0  0  0  0  0  0  0  0  0  0  0
   -5.2547  -13.3590   18.0476 H   0  0  0  0  0  0  0  0  0  0  0  0
  1  2  1  0
  2  3  1  0
  3  4  2  0
  4  5  1  0
  5  6  1  0
  6  7  2  0
  6  8  1  0
  8  9  1  0
  9 10  1  0
 10 11  1  0
 11 12  1  0
 11 13  1  0
 13 14  2  0
 13 15  1  0
 15 16  1  0
 16 17  1  0
 17 18  2  0
 18 19  1  0
 19 20  2  0
 20 21  1  0
  5 22  2  0
 22 23  1  0
 23 24  2  0
 24  3  1  0
 21 17  1  0
  1 25  1  0
  1 26  1  0
  1 27  1  0
  4 28  1  0
  8 29  1  0
  9 30  1  0
  9 31  1  0
 10 32  1  0
 10 33  1  0
 12 34  1  0
 12 35  1  0
 12 36  1  0
 15 37  1  0
 15 38  1  0
 16 39  1  0
 16 40  1  0
 18 41  1  0
 19 42  1  0
 21 43  1  0
 22 44  1  0
 23 45  1  0
M  END
>  <Energy>  (452) 
402.36541868772099

>  <compound_id>  (452) 
5311

>  <target_id>  (452) 
1

>  <reference_id>  (452) 
112

>  <inspiration_ids>  (452) 
[60, 112]

>  <energy_score>  (452) 
388.02906956920265

>  <distance_score>  (452) 
13.160494181417235

>  <path>  (452) 
/opt/xchem-fragalysis-2/maxwin/BulkDock/SCRATCH/511018/C5311-P112/C5311-P112.minimised.mol

>  <scratch_subdir>  (452) 
/opt/xchem-fragalysis-2/maxwin/BulkDock/SCRATCH/511018/C5311-P112

>  <fragmenstein_runtime>  (452) 
12.327306270599365

>  <fragmenstein_outcome>  (452) 
too moved

>  <fragmenstein_mode>  (452) 
expansion

>  <fragmenstein_error>  (452) 


$$$$
C5368-P97
     RDKit          3D

 54 57  0  0  0  0  0  0  0  0999 V2000
    4.0996   -1.1116   13.4293 C   0  0  0  0  0  0  0  0  0  0  0  0
    3.0811   -0.1694   12.6971 C   0  0  0  0  0  0  0  0  0  0  0  0
    3.8821    0.7915   11.8123 C   0  0  0  0  0  0  0  0  0  0  0  0
    2.4115    0.5942   13.8379 C   0  0  0  0  0  0  0  0  0  0  0  0
    2.1925   -1.0581   11.9872 O   0  0  0  0  0  0  0  0  0  0  0  0
    0.8715   -1.0578   10.9339 C   0  0  0  0  0  0  0  0  0  0  0  0
   -1.0424   -1.2596   10.8896 C   0  0  0  0  0  0  0  0  0  0  0  0
   -2.0960   -0.9393    9.2163 N   0  0  0  0  0  0  0  0  0  0  0  0
   -3.4931   -0.0910    8.8725 C   0  0  0  0  0  0  0  0  0  0  0  0
   -5.0960    0.7396    8.0074 C   0  0  0  0  0  0  0  0  0  0  0  0
   -6.3566    0.6957    8.6386 C   0  0  0  0  0  0  0  0  0  0  0  0
   -7.3038    1.4368    7.9985 N   0  0  0  0  0  0  0  0  0  0  0  0
   -6.8771    1.7368    6.7482 C   0  0  0  0  0  0  0  0  0  0  0  0
   -7.5879    2.3923    5.7348 C   0  0  0  0  0  0  0  0  0  0  0  0
   -7.0325    2.4493    4.4644 C   0  0  0  0  0  0  0  0  0  0  0  0
   -5.8344    1.8119    4.2150 C   0  0  0  0  0  0  0  0  0  0  0  0
   -5.1611    1.1394    5.2473 C   0  0  0  0  0  0  0  0  0  0  0  0
   -5.6113    1.1568    6.6048 C   0  0  0  0  0  0  0  0  0  0  0  0
   -3.0188   -0.3771    7.6138 N   0  0  0  0  0  0  0  0  0  0  0  0
   -2.2086   -1.4105    7.4643 N   0  0  0  0  0  0  0  0  0  0  0  0
   -2.8681   -2.1694    8.2782 C   0  0  0  0  0  0  0  0  0  0  0  0
   -4.2721   -2.5332    7.7083 N   0  0  0  0  0  0  0  0  0  0  0  0
   -4.5908   -3.6518    6.8152 C   0  0  0  0  0  0  0  0  0  0  0  0
   -6.1372   -4.0099    6.5617 C   0  0  0  0  0  0  0  0  0  0  0  0
   -7.0347   -2.9287    6.3981 N   0  0  0  0  0  0  0  0  0  0  0  0
   -6.8878   -2.0462    7.4076 C   0  0  0  0  0  0  0  0  0  0  0  0
   -7.8831   -1.5595    7.9365 O   0  0  0  0  0  0  0  0  0  0  0  0
   -5.4367   -1.6706    7.7087 C   0  0  0  0  0  0  0  0  0  0  0  0
    4.5127   -1.8574   12.7545 H   0  0  0  0  0  0  0  0  0  0  0  0
    3.5897   -1.6847   14.2139 H   0  0  0  0  0  0  0  0  0  0  0  0
    4.9194   -0.5501   13.8896 H   0  0  0  0  0  0  0  0  0  0  0  0
    3.2576    1.3440   11.1088 H   0  0  0  0  0  0  0  0  0  0  0  0
    4.6296    0.2578   11.2215 H   0  0  0  0  0  0  0  0  0  0  0  0
    4.4300    1.5223   12.4185 H   0  0  0  0  0  0  0  0  0  0  0  0
    3.1410    0.9725   14.5636 H   0  0  0  0  0  0  0  0  0  0  0  0
    1.6925   -0.0397   14.3670 H   0  0  0  0  0  0  0  0  0  0  0  0
    1.8668    1.4682   13.4767 H   0  0  0  0  0  0  0  0  0  0  0  0
    1.2586   -0.7257    9.9924 H   0  0  0  0  0  0  0  0  0  0  0  0
    0.5211   -0.5610   11.8513 H   0  0  0  0  0  0  0  0  0  0  0  0
   -1.5285   -1.8100   11.7796 H   0  0  0  0  0  0  0  0  0  0  0  0
   -1.4160   -0.4313   11.6560 H   0  0  0  0  0  0  0  0  0  0  0  0
   -6.7102    0.1679    9.5150 H   0  0  0  0  0  0  0  0  0  0  0  0
   -8.2516    1.5639    8.3286 H   0  0  0  0  0  0  0  0  0  0  0  0
   -8.5672    2.8225    5.9245 H   0  0  0  0  0  0  0  0  0  0  0  0
   -7.5609    2.9561    3.6615 H   0  0  0  0  0  0  0  0  0  0  0  0
   -5.4136    1.8272    3.2128 H   0  0  0  0  0  0  0  0  0  0  0  0
   -4.2488    0.6165    4.9777 H   0  0  0  0  0  0  0  0  0  0  0  0
   -4.3869   -3.3157    5.8413 H   0  0  0  0  0  0  0  0  0  0  0  0
   -3.9095   -4.4773    7.0052 H   0  0  0  0  0  0  0  0  0  0  0  0
   -6.5786   -4.5845    7.3750 H   0  0  0  0  0  0  0  0  0  0  0  0
   -6.2952   -4.5430    5.6277 H   0  0  0  0  0  0  0  0  0  0  0  0
   -8.0123   -3.1511    6.2405 H   0  0  0  0  0  0  0  0  0  0  0  0
   -5.4978   -1.3500    8.7321 H   0  0  0  0  0  0  0  0  0  0  0  0
   -5.2362   -1.0576    6.8483 H   0  0  0  0  0  0  0  0  0  0  0  0
  1  2  1  0
  2  3  1  0
  2  4  1  0
  2  5  1  0
  5  6  1  0
  6  7  1  0
  7  8  1  0
  8  9  1  0
  9 10  1  0
 10 11  2  0
 11 12  1  0
 12 13  1  0
 13 14  2  0
 14 15  1  0
 15 16  2  0
 16 17  1  0
 17 18  2  0
  9 19  2  0
 19 20  1  0
 20 21  2  0
 21 22  1  0
 22 23  1  0
 23 24  1  0
 24 25  1  0
 25 26  1  0
 26 27  2  0
 26 28  1  0
 21  8  1  0
 28 22  1  0
 18 10  1  0
 18 13  1  0
  1 29  1  0
  1 30  1  0
  1 31  1  0
  3 32  1  0
  3 33  1  0
  3 34  1  0
  4 35  1  0
  4 36  1  0
  4 37  1  0
  6 38  1  0
  6 39  1  0
  7 40  1  0
  7 41  1  0
 11 42  1  0
 12 43  1  0
 14 44  1  0
 15 45  1  0
 16 46  1  0
 17 47  1  0
 23 48  1  0
 23 49  1  0
 24 50  1  0
 24 51  1  0
 25 52  1  0
 28 53  1  0
 28 54  1  0
M  END
>  <Energy>  (453) 
799.10146703940609

>  <compound_id>  (453) 
5368

>  <target_id>  (453) 
1

>  <reference_id>  (453) 
97

>  <inspiration_ids>  (453) 
[97, 24]

>  <energy_score>  (453) 
625.5552068920205

>  <distance_score>  (453) 
7.133885288612348

>  <path>  (453) 
/opt/xchem-fragalysis-2/maxwin/BulkDock/SCRATCH/511018/C5368-P97/C5368-P97.minimised.mol

>  <scratch_subdir>  (453) 
/opt/xchem-fragalysis-2/maxwin/BulkDock/SCRATCH/511018/C5368-P97

>  <fragmenstein_runtime>  (453) 
56.04588747024536

>  <fragmenstein_outcome>  (453) 
too moved

>  <fragmenstein_mode>  (453) 
expansion

>  <fragmenstein_error>  (453) 


$$$$
C5368-P24
     RDKit          3D

 54 57  0  0  0  0  0  0  0  0999 V2000
    2.4446   -0.0391   14.7150 C   0  0  0  0  0  0  0  0  0  0  0  0
    2.7950   -0.6150   13.3418 C   0  0  0  0  0  0  0  0  0  0  0  0
    3.0144   -2.1281   13.4806 C   0  0  0  0  0  0  0  0  0  0  0  0
    4.1602    0.0045   12.9332 C   0  0  0  0  0  0  0  0  0  0  0  0
    1.8336   -0.2058   12.3025 O   0  0  0  0  0  0  0  0  0  0  0  0
    0.3414   -0.6679   12.1600 C   0  0  0  0  0  0  0  0  0  0  0  0
   -0.4604   -1.1196   10.3010 C   0  0  0  0  0  0  0  0  0  0  0  0
   -2.0502   -0.9904    8.9947 N   0  0  0  0  0  0  0  0  0  0  0  0
   -2.3648   -0.5866    7.4452 C   0  0  0  0  0  0  0  0  0  0  0  0
   -2.8204   -1.3171    5.6491 C   0  0  0  0  0  0  0  0  0  0  0  0
   -4.0736   -1.1190    5.0399 C   0  0  0  0  0  0  0  0  0  0  0  0
   -4.2501    0.1900    4.6422 N   0  0  0  0  0  0  0  0  0  0  0  0
   -3.0173    0.7936    4.6377 C   0  0  0  0  0  0  0  0  0  0  0  0
   -2.4763    2.4065    5.4102 C   0  0  0  0  0  0  0  0  0  0  0  0
   -0.6714    2.7846    5.7387 C   0  0  0  0  0  0  0  0  0  0  0  0
    0.5351    1.6126    4.6449 C   0  0  0  0  0  0  0  0  0  0  0  0
    0.0127   -0.3140    4.2193 C   0  0  0  0  0  0  0  0  0  0  0  0
   -1.9802   -0.6893    4.2029 C   0  0  0  0  0  0  0  0  0  0  0  0
   -3.0545    0.5768    7.5745 N   0  0  0  0  0  0  0  0  0  0  0  0
   -3.4627    0.7539    8.8262 N   0  0  0  0  0  0  0  0  0  0  0  0
   -3.5946   -0.4915    9.2052 C   0  0  0  0  0  0  0  0  0  0  0  0
   -4.8594   -1.1336    8.9029 N   0  0  0  0  0  0  0  0  0  0  0  0
   -5.0147   -1.8043    7.6049 C   0  0  0  0  0  0  0  0  0  0  0  0
   -6.3648   -2.4575    7.2509 C   0  0  0  0  0  0  0  0  0  0  0  0
   -7.5093   -1.7329    7.7185 N   0  0  0  0  0  0  0  0  0  0  0  0
   -7.4215   -0.6558    8.5433 C   0  0  0  0  0  0  0  0  0  0  0  0
   -8.4564   -0.0677    8.8631 O   0  0  0  0  0  0  0  0  0  0  0  0
   -6.0431   -0.1661    9.0137 C   0  0  0  0  0  0  0  0  0  0  0  0
    2.2586    1.0386   14.6471 H   0  0  0  0  0  0  0  0  0  0  0  0
    1.5258   -0.4871   15.1044 H   0  0  0  0  0  0  0  0  0  0  0  0
    3.2383   -0.2119   15.4499 H   0  0  0  0  0  0  0  0  0  0  0  0
    3.8391   -2.3481   14.1691 H   0  0  0  0  0  0  0  0  0  0  0  0
    3.2575   -2.5906   12.5198 H   0  0  0  0  0  0  0  0  0  0  0  0
    2.1294   -2.6292   13.8841 H   0  0  0  0  0  0  0  0  0  0  0  0
    4.9610   -0.2600   13.6315 H   0  0  0  0  0  0  0  0  0  0  0  0
    4.4464   -0.3181   11.9286 H   0  0  0  0  0  0  0  0  0  0  0  0
    4.0844    1.0973   12.8896 H   0  0  0  0  0  0  0  0  0  0  0  0
    0.4654   -1.3598   12.9962 H   0  0  0  0  0  0  0  0  0  0  0  0
   -0.5076   -0.1723   12.6319 H   0  0  0  0  0  0  0  0  0  0  0  0
    0.3212   -1.6820    9.7935 H   0  0  0  0  0  0  0  0  0  0  0  0
    0.0645   -0.5011    9.6925 H   0  0  0  0  0  0  0  0  0  0  0  0
   -4.9210   -1.7792    4.9682 H   0  0  0  0  0  0  0  0  0  0  0  0
   -5.1342    0.6811    4.6604 H   0  0  0  0  0  0  0  0  0  0  0  0
   -3.2728    3.0685    5.7429 H   0  0  0  0  0  0  0  0  0  0  0  0
   -0.4117    3.8497    5.8372 H   0  0  0  0  0  0  0  0  0  0  0  0
    0.8755    2.1860    3.6760 H   0  0  0  0  0  0  0  0  0  0  0  0
    0.4106   -0.7234    3.2680 H   0  0  0  0  0  0  0  0  0  0  0  0
   -5.0039   -0.9512    6.9462 H   0  0  0  0  0  0  0  0  0  0  0  0
   -4.2157   -2.5264    7.4219 H   0  0  0  0  0  0  0  0  0  0  0  0
   -6.4442   -3.4993    7.5587 H   0  0  0  0  0  0  0  0  0  0  0  0
   -6.4775   -2.5107    6.1634 H   0  0  0  0  0  0  0  0  0  0  0  0
   -8.4526   -2.0411    7.5053 H   0  0  0  0  0  0  0  0  0  0  0  0
   -6.2203    0.0376   10.0624 H   0  0  0  0  0  0  0  0  0  0  0  0
   -5.8476    0.7640    8.4680 H   0  0  0  0  0  0  0  0  0  0  0  0
  1  2  1  0
  2  3  1  0
  2  4  1  0
  2  5  1  0
  5  6  1  0
  6  7  1  0
  7  8  1  0
  8  9  1  0
  9 10  1  0
 10 11  2  0
 11 12  1  0
 12 13  1  0
 13 14  2  0
 14 15  1  0
 15 16  2  0
 16 17  1  0
 17 18  2  0
  9 19  2  0
 19 20  1  0
 20 21  2  0
 21 22  1  0
 22 23  1  0
 23 24  1  0
 24 25  1  0
 25 26  1  0
 26 27  2  0
 26 28  1  0
 21  8  1  0
 28 22  1  0
 18 10  1  0
 18 13  1  0
  1 29  1  0
  1 30  1  0
  1 31  1  0
  3 32  1  0
  3 33  1  0
  3 34  1  0
  4 35  1  0
  4 36  1  0
  4 37  1  0
  6 38  1  0
  6 39  1  0
  7 40  1  0
  7 41  1  0
 11 42  1  0
 12 43  1  0
 14 44  1  0
 15 45  1  0
 16 46  1  0
 17 47  1  0
 23 48  1  0
 23 49  1  0
 24 50  1  0
 24 51  1  0
 25 52  1  0
 28 53  1  0
 28 54  1  0
M  END
>  <Energy>  (454) 
1279.1081346334079

>  <compound_id>  (454) 
5368

>  <target_id>  (454) 
1

>  <reference_id>  (454) 
24

>  <inspiration_ids>  (454) 
[97, 24]

>  <energy_score>  (454) 
1105.5618744860158

>  <distance_score>  (454) 
7.171627698666061

>  <path>  (454) 
/opt/xchem-fragalysis-2/maxwin/BulkDock/SCRATCH/511018/C5368-P24/C5368-P24.minimised.mol

>  <scratch_subdir>  (454) 
/opt/xchem-fragalysis-2/maxwin/BulkDock/SCRATCH/511018/C5368-P24

>  <fragmenstein_runtime>  (454) 
53.43592619895935

>  <fragmenstein_outcome>  (454) 
too moved

>  <fragmenstein_mode>  (454) 
expansion

>  <fragmenstein_error>  (454) 


$$$$
C5377-P97
     RDKit          3D

 43 45  0  0  0  0  0  0  0  0999 V2000
   -1.1594   -0.6710   12.5028 C   0  0  0  0  0  0  0  0  0  0  0  0
   -1.0446   -1.3238   10.9352 C   0  0  0  0  0  0  0  0  0  0  0  0
    0.6846   -1.5092   10.8072 C   0  0  0  0  0  0  0  0  0  0  0  0
   -2.4420   -1.0500    9.2293 C   0  0  0  0  0  0  0  0  0  0  0  0
   -4.4674   -1.1642    9.2173 N   0  0  0  0  0  0  0  0  0  0  0  0
   -5.7916   -1.9648    8.6168 C   0  0  0  0  0  0  0  0  0  0  0  0
   -6.4336   -2.0870    7.3599 C   0  0  0  0  0  0  0  0  0  0  0  0
   -5.2963   -2.2150    6.6770 C   0  0  0  0  0  0  0  0  0  0  0  0
   -4.8302   -3.1587    6.1117 O   0  0  0  0  0  0  0  0  0  0  0  0
   -4.8070   -0.9777    6.9151 N   0  0  0  0  0  0  0  0  0  0  0  0
   -3.6402   -0.4661    6.6919 C   0  0  0  0  0  0  0  0  0  0  0  0
   -4.1663    0.8235    8.0577 C   0  0  0  0  0  0  0  0  0  0  0  0
   -5.1667    1.7785    7.4098 N   0  0  0  0  0  0  0  0  0  0  0  0
   -5.8223    1.3466    6.2719 C   0  0  0  0  0  0  0  0  0  0  0  0
   -6.6611    2.0346    5.7071 O   0  0  0  0  0  0  0  0  0  0  0  0
   -5.2226    0.0489    5.7074 C   0  0  0  0  0  0  0  0  0  0  0  0
   -6.9982   -0.8637    7.7611 C   0  0  0  0  0  0  0  0  0  0  0  0
   -8.1782   -0.2231    7.3077 C   0  0  0  0  0  0  0  0  0  0  0  0
   -8.7878    0.6989    8.1096 C   0  0  0  0  0  0  0  0  0  0  0  0
   -8.3401    0.7262    9.3981 C   0  0  0  0  0  0  0  0  0  0  0  0
   -7.1019    0.1367    9.7761 C   0  0  0  0  0  0  0  0  0  0  0  0
   -6.0166   -0.2461    8.9088 C   0  0  0  0  0  0  0  0  0  0  0  0
   -0.1791   -0.5295   12.9647 H   0  0  0  0  0  0  0  0  0  0  0  0
   -1.7289    0.2375   12.6347 H   0  0  0  0  0  0  0  0  0  0  0  0
   -1.5978   -1.4152   13.1772 H   0  0  0  0  0  0  0  0  0  0  0  0
   -1.0705   -2.2503   11.5279 H   0  0  0  0  0  0  0  0  0  0  0  0
    1.1352   -1.2993   11.7756 H   0  0  0  0  0  0  0  0  0  0  0  0
    1.0741   -2.4983   10.5819 H   0  0  0  0  0  0  0  0  0  0  0  0
    1.1226   -0.8908   10.0528 H   0  0  0  0  0  0  0  0  0  0  0  0
   -2.3614   -1.8922    8.5426 H   0  0  0  0  0  0  0  0  0  0  0  0
   -2.3621   -0.0329    8.9176 H   0  0  0  0  0  0  0  0  0  0  0  0
   -6.5561   -1.9848    9.4167 H   0  0  0  0  0  0  0  0  0  0  0  0
   -3.3296   -1.4473    7.0320 H   0  0  0  0  0  0  0  0  0  0  0  0
   -2.6415   -0.4972    7.1214 H   0  0  0  0  0  0  0  0  0  0  0  0
   -3.3351    1.5138    8.3998 H   0  0  0  0  0  0  0  0  0  0  0  0
   -4.2141    0.6361    9.0955 H   0  0  0  0  0  0  0  0  0  0  0  0
   -5.6870    2.4935    7.9146 H   0  0  0  0  0  0  0  0  0  0  0  0
   -4.4575    0.3474    4.9669 H   0  0  0  0  0  0  0  0  0  0  0  0
   -6.0678   -0.4117    5.1707 H   0  0  0  0  0  0  0  0  0  0  0  0
   -8.6743   -0.5672    6.4035 H   0  0  0  0  0  0  0  0  0  0  0  0
   -9.7284    1.1548    7.8231 H   0  0  0  0  0  0  0  0  0  0  0  0
   -9.0031    1.1297   10.1587 H   0  0  0  0  0  0  0  0  0  0  0  0
   -6.9696   -0.1306   10.8074 H   0  0  0  0  0  0  0  0  0  0  0  0
  1  2  1  0
  2  3  1  0
  2  4  1  0
  4  5  1  0
  5  6  1  0
  6  7  2  0
  7  8  1  0
  8  9  2  0
  8 10  1  0
 10 11  1  0
 11 12  1  0
 12 13  1  0
 13 14  1  0
 14 15  2  0
 14 16  1  0
  7 17  1  0
 17 18  2  0
 18 19  1  0
 19 20  2  0
 20 21  1  0
 21 22  2  0
 22  5  1  0
 16 10  1  0
 22 17  1  0
  1 23  1  0
  1 24  1  0
  1 25  1  0
  2 26  1  0
  3 27  1  0
  3 28  1  0
  3 29  1  0
  4 30  1  0
  4 31  1  0
  6 32  1  0
 11 33  1  0
 11 34  1  0
 12 35  1  0
 12 36  1  0
 13 37  1  0
 16 38  1  0
 16 39  1  0
 18 40  1  0
 19 41  1  0
 20 42  1  0
 21 43  1  0
M  END
>  <Energy>  (455) 
1140.3794323378766

>  <compound_id>  (455) 
5377

>  <target_id>  (455) 
1

>  <reference_id>  (455) 
97

>  <inspiration_ids>  (455) 
[97, 24]

>  <energy_score>  (455) 
1043.8040511473598

>  <distance_score>  (455) 
8.711049743784763

>  <path>  (455) 
/opt/xchem-fragalysis-2/maxwin/BulkDock/SCRATCH/511018/C5377-P97/C5377-P97.minimised.mol

>  <scratch_subdir>  (455) 
/opt/xchem-fragalysis-2/maxwin/BulkDock/SCRATCH/511018/C5377-P97

>  <fragmenstein_runtime>  (455) 
21.10440754890442

>  <fragmenstein_outcome>  (455) 
too moved

>  <fragmenstein_mode>  (455) 
expansion

>  <fragmenstein_error>  (455) 


$$$$
C5377-P24
     RDKit          3D

 43 45  0  0  0  0  0  0  0  0999 V2000
    2.9862   -5.5249   11.0042 C   0  0  0  0  0  0  0  0  0  0  0  0
    2.7358   -4.2088   11.7531 C   0  0  0  0  0  0  0  0  0  0  0  0
    2.2513   -4.4849   13.1594 C   0  0  0  0  0  0  0  0  0  0  0  0
    2.2822   -2.9183   10.7497 C   0  0  0  0  0  0  0  0  0  0  0  0
    0.8830   -1.6298   10.0897 N   0  0  0  0  0  0  0  0  0  0  0  0
    0.2028   -2.3201    8.6178 C   0  0  0  0  0  0  0  0  0  0  0  0
   -1.5075   -1.5944    8.0220 C   0  0  0  0  0  0  0  0  0  0  0  0
   -3.0311   -2.2784    7.2470 C   0  0  0  0  0  0  0  0  0  0  0  0
   -3.0410   -3.4278    6.9305 O   0  0  0  0  0  0  0  0  0  0  0  0
   -4.0866   -1.3145    7.2173 N   0  0  0  0  0  0  0  0  0  0  0  0
   -5.5400   -1.4623    6.8968 C   0  0  0  0  0  0  0  0  0  0  0  0
   -5.9960   -2.4511    5.8260 C   0  0  0  0  0  0  0  0  0  0  0  0
   -5.8224   -1.8052    4.5708 N   0  0  0  0  0  0  0  0  0  0  0  0
   -5.0013   -0.7159    4.5813 C   0  0  0  0  0  0  0  0  0  0  0  0
   -4.9773    0.0782    3.6506 O   0  0  0  0  0  0  0  0  0  0  0  0
   -4.0982   -0.5691    5.8609 C   0  0  0  0  0  0  0  0  0  0  0  0
   -2.0036   -0.9176    9.1282 C   0  0  0  0  0  0  0  0  0  0  0  0
   -3.2920   -0.1146    9.2027 C   0  0  0  0  0  0  0  0  0  0  0  0
   -4.1526   -0.0542   10.3055 C   0  0  0  0  0  0  0  0  0  0  0  0
   -3.6293   -0.1748   11.8438 C   0  0  0  0  0  0  0  0  0  0  0  0
   -1.7215   -0.5086   12.1151 C   0  0  0  0  0  0  0  0  0  0  0  0
   -0.7823   -1.1266   10.6113 C   0  0  0  0  0  0  0  0  0  0  0  0
    2.0399   -6.0153   10.7568 H   0  0  0  0  0  0  0  0  0  0  0  0
    3.5678   -6.2209   11.6195 H   0  0  0  0  0  0  0  0  0  0  0  0
    3.5373   -5.3812   10.0713 H   0  0  0  0  0  0  0  0  0  0  0  0
    3.7797   -3.9154   11.9621 H   0  0  0  0  0  0  0  0  0  0  0  0
    1.9849   -3.5742   13.6778 H   0  0  0  0  0  0  0  0  0  0  0  0
    1.3851   -5.1553   13.1580 H   0  0  0  0  0  0  0  0  0  0  0  0
    3.0287   -4.9852   13.7492 H   0  0  0  0  0  0  0  0  0  0  0  0
    2.8596   -2.2867   11.4157 H   0  0  0  0  0  0  0  0  0  0  0  0
    2.6246   -3.4279    9.8459 H   0  0  0  0  0  0  0  0  0  0  0  0
    1.0267   -2.7501    7.9983 H   0  0  0  0  0  0  0  0  0  0  0  0
   -5.9098   -1.9105    7.8283 H   0  0  0  0  0  0  0  0  0  0  0  0
   -6.0736   -0.4936    6.8918 H   0  0  0  0  0  0  0  0  0  0  0  0
   -7.0594   -2.6842    5.9370 H   0  0  0  0  0  0  0  0  0  0  0  0
   -5.4279   -3.3813    5.8361 H   0  0  0  0  0  0  0  0  0  0  0  0
   -6.4882   -1.8945    3.8125 H   0  0  0  0  0  0  0  0  0  0  0  0
   -3.1219   -0.7746    5.4289 H   0  0  0  0  0  0  0  0  0  0  0  0
   -4.1307    0.4998    6.1184 H   0  0  0  0  0  0  0  0  0  0  0  0
   -3.6591    0.3581    8.3028 H   0  0  0  0  0  0  0  0  0  0  0  0
   -5.2067   -0.0498   10.0174 H   0  0  0  0  0  0  0  0  0  0  0  0
   -4.4878   -0.2687   12.4685 H   0  0  0  0  0  0  0  0  0  0  0  0
   -1.2799   -0.6686   13.0986 H   0  0  0  0  0  0  0  0  0  0  0  0
  1  2  1  0
  2  3  1  0
  2  4  1  0
  4  5  1  0
  5  6  1  0
  6  7  2  0
  7  8  1  0
  8  9  2  0
  8 10  1  0
 10 11  1  0
 11 12  1  0
 12 13  1  0
 13 14  1  0
 14 15  2  0
 14 16  1  0
  7 17  1  0
 17 18  2  0
 18 19  1  0
 19 20  2  0
 20 21  1  0
 21 22  2  0
 22  5  1  0
 16 10  1  0
 22 17  1  0
  1 23  1  0
  1 24  1  0
  1 25  1  0
  2 26  1  0
  3 27  1  0
  3 28  1  0
  3 29  1  0
  4 30  1  0
  4 31  1  0
  6 32  1  0
 11 33  1  0
 11 34  1  0
 12 35  1  0
 12 36  1  0
 13 37  1  0
 16 38  1  0
 16 39  1  0
 18 40  1  0
 19 41  1  0
 20 42  1  0
 21 43  1  0
M  END
>  <Energy>  (456) 
905.84208851540245

>  <compound_id>  (456) 
5377

>  <target_id>  (456) 
1

>  <reference_id>  (456) 
24

>  <inspiration_ids>  (456) 
[97, 24]

>  <energy_score>  (456) 
809.2667073248848

>  <distance_score>  (456) 
7.9706357394862595

>  <path>  (456) 
/opt/xchem-fragalysis-2/maxwin/BulkDock/SCRATCH/511018/C5377-P24/C5377-P24.minimised.mol

>  <scratch_subdir>  (456) 
/opt/xchem-fragalysis-2/maxwin/BulkDock/SCRATCH/511018/C5377-P24

>  <fragmenstein_runtime>  (456) 
20.309518098831177

>  <fragmenstein_outcome>  (456) 
too moved

>  <fragmenstein_mode>  (456) 
expansion

>  <fragmenstein_error>  (456) 


$$$$
C5383-P97
     RDKit          3D

 41 43  0  0  0  0  0  0  0  0999 V2000
    7.1967   -2.1070   14.3335 N   0  0  0  0  0  0  0  0  0  0  0  0
    6.5888   -1.8869   13.3680 C   0  0  0  0  0  0  0  0  0  0  0  0
    5.8152   -1.2662   12.2411 C   0  0  0  0  0  0  0  0  0  0  0  0
    3.9509   -1.7737   11.5584 C   0  0  0  0  0  0  0  0  0  0  0  0
    2.0421   -1.0215   11.3334 C   0  0  0  0  0  0  0  0  0  0  0  0
    0.5797   -1.3054   10.2406 N   0  0  0  0  0  0  0  0  0  0  0  0
   -1.0894   -1.3199   10.7015 C   0  0  0  0  0  0  0  0  0  0  0  0
   -2.3160   -1.7618    9.2537 C   0  0  0  0  0  0  0  0  0  0  0  0
   -4.0089   -2.0741    8.4173 C   0  0  0  0  0  0  0  0  0  0  0  0
   -3.9201   -3.0272    7.6590 O   0  0  0  0  0  0  0  0  0  0  0  0
   -5.4993   -1.2446    8.6423 N   0  0  0  0  0  0  0  0  0  0  0  0
   -6.9305   -1.5383    8.1093 C   0  0  0  0  0  0  0  0  0  0  0  0
   -8.0616   -0.5852    8.5392 C   0  0  0  0  0  0  0  0  0  0  0  0
   -8.0497    0.5388    7.6788 N   0  0  0  0  0  0  0  0  0  0  0  0
   -6.8539    0.8206    7.1116 C   0  0  0  0  0  0  0  0  0  0  0  0
   -6.7126    1.7262    6.2984 O   0  0  0  0  0  0  0  0  0  0  0  0
   -5.6486   -0.0517    7.6189 C   0  0  0  0  0  0  0  0  0  0  0  0
   -1.6426   -1.9004    8.1888 C   0  0  0  0  0  0  0  0  0  0  0  0
   -2.8760   -0.7483    7.4724 C   0  0  0  0  0  0  0  0  0  0  0  0
   -3.1438    0.1258    8.3911 C   0  0  0  0  0  0  0  0  0  0  0  0
   -1.9475    0.0983    8.0625 C   0  0  0  0  0  0  0  0  0  0  0  0
   -1.0558   -1.4483    7.5248 C   0  0  0  0  0  0  0  0  0  0  0  0
    0.1773   -2.1957    8.8425 C   0  0  0  0  0  0  0  0  0  0  0  0
    5.6949   -0.3130   12.6522 H   0  0  0  0  0  0  0  0  0  0  0  0
    6.5488   -1.0962   11.4299 H   0  0  0  0  0  0  0  0  0  0  0  0
    3.8244   -2.8606   11.3697 H   0  0  0  0  0  0  0  0  0  0  0  0
    4.3591   -0.8024   11.0791 H   0  0  0  0  0  0  0  0  0  0  0  0
    2.5379   -0.0709   10.9800 H   0  0  0  0  0  0  0  0  0  0  0  0
    1.4821   -0.7695   12.2693 H   0  0  0  0  0  0  0  0  0  0  0  0
   -1.2733   -0.9275   11.7466 H   0  0  0  0  0  0  0  0  0  0  0  0
   -7.3098   -2.4772    8.4703 H   0  0  0  0  0  0  0  0  0  0  0  0
   -6.8986   -1.7649    7.0265 H   0  0  0  0  0  0  0  0  0  0  0  0
   -9.0411   -1.0634    8.4388 H   0  0  0  0  0  0  0  0  0  0  0  0
   -7.9333   -0.2269    9.5644 H   0  0  0  0  0  0  0  0  0  0  0  0
   -8.8722    1.0752    7.4295 H   0  0  0  0  0  0  0  0  0  0  0  0
   -5.1692   -0.3388    6.6841 H   0  0  0  0  0  0  0  0  0  0  0  0
   -5.2188    0.7831    8.1230 H   0  0  0  0  0  0  0  0  0  0  0  0
   -3.3475   -0.9926    6.5237 H   0  0  0  0  0  0  0  0  0  0  0  0
   -3.6547    0.9808    8.7065 H   0  0  0  0  0  0  0  0  0  0  0  0
   -1.7294    1.1524    8.0190 H   0  0  0  0  0  0  0  0  0  0  0  0
   -0.3343   -1.4237    6.6178 H   0  0  0  0  0  0  0  0  0  0  0  0
  1  2  3  0
  2  3  1  0
  3  4  1  0
  4  5  1  0
  5  6  1  0
  6  7  1  0
  7  8  2  0
  8  9  1  0
  9 10  2  0
  9 11  1  0
 11 12  1  0
 12 13  1  0
 13 14  1  0
 14 15  1  0
 15 16  2  0
 15 17  1  0
  8 18  1  0
 18 19  2  0
 19 20  1  0
 20 21  2  0
 21 22  1  0
 22 23  2  0
 23  6  1  0
 17 11  1  0
 23 18  1  0
  3 24  1  0
  3 25  1  0
  4 26  1  0
  4 27  1  0
  5 28  1  0
  5 29  1  0
  7 30  1  0
 12 31  1  0
 12 32  1  0
 13 33  1  0
 13 34  1  0
 14 35  1  0
 17 36  1  0
 17 37  1  0
 19 38  1  0
 20 39  1  0
 21 40  1  0
 22 41  1  0
M  END
>  <Energy>  (457) 
1768.6868552609005

>  <compound_id>  (457) 
5383

>  <target_id>  (457) 
1

>  <reference_id>  (457) 
97

>  <inspiration_ids>  (457) 
[97, 24]

>  <energy_score>  (457) 
1694.250368023915

>  <distance_score>  (457) 
6.271543665473082

>  <path>  (457) 
/opt/xchem-fragalysis-2/maxwin/BulkDock/SCRATCH/511018/C5383-P97/C5383-P97.minimised.mol

>  <scratch_subdir>  (457) 
/opt/xchem-fragalysis-2/maxwin/BulkDock/SCRATCH/511018/C5383-P97

>  <fragmenstein_runtime>  (457) 
17.84374690055847

>  <fragmenstein_outcome>  (457) 
too moved

>  <fragmenstein_mode>  (457) 
expansion

>  <fragmenstein_error>  (457) 


$$$$
C5383-P24
     RDKit          3D

 41 43  0  0  0  0  0  0  0  0999 V2000
    6.6019   -1.2561   12.2535 N   0  0  0  0  0  0  0  0  0  0  0  0
    5.6509   -0.8054   11.7282 C   0  0  0  0  0  0  0  0  0  0  0  0
    4.2469   -0.0059   10.8796 C   0  0  0  0  0  0  0  0  0  0  0  0
    2.6484    0.1968   10.7699 C   0  0  0  0  0  0  0  0  0  0  0  0
    1.3579   -0.9092    9.6829 C   0  0  0  0  0  0  0  0  0  0  0  0
   -0.3324   -0.9655    9.6500 N   0  0  0  0  0  0  0  0  0  0  0  0
   -1.1542   -1.2274   10.6069 C   0  0  0  0  0  0  0  0  0  0  0  0
   -2.6215   -1.1102    9.3325 C   0  0  0  0  0  0  0  0  0  0  0  0
   -4.2206   -0.3956    9.6671 C   0  0  0  0  0  0  0  0  0  0  0  0
   -4.3293   -0.1694   10.8304 O   0  0  0  0  0  0  0  0  0  0  0  0
   -5.1252   -0.0850    8.5584 N   0  0  0  0  0  0  0  0  0  0  0  0
   -6.4143    0.7129    8.5294 C   0  0  0  0  0  0  0  0  0  0  0  0
   -7.0957    0.9393    7.1659 C   0  0  0  0  0  0  0  0  0  0  0  0
   -7.5732   -0.2848    6.6233 N   0  0  0  0  0  0  0  0  0  0  0  0
   -7.0201   -1.4326    7.0981 C   0  0  0  0  0  0  0  0  0  0  0  0
   -7.3505   -2.5261    6.6574 O   0  0  0  0  0  0  0  0  0  0  0  0
   -6.0981   -1.2371    8.3269 C   0  0  0  0  0  0  0  0  0  0  0  0
   -2.5197   -1.8500    8.1681 C   0  0  0  0  0  0  0  0  0  0  0  0
   -3.3264   -2.0841    7.0063 C   0  0  0  0  0  0  0  0  0  0  0  0
   -3.8291   -1.0864    6.1866 C   0  0  0  0  0  0  0  0  0  0  0  0
   -3.5985    0.1853    6.6133 C   0  0  0  0  0  0  0  0  0  0  0  0
   -2.6422    0.4016    7.6746 C   0  0  0  0  0  0  0  0  0  0  0  0
   -1.6783   -0.7839    8.2957 C   0  0  0  0  0  0  0  0  0  0  0  0
    3.9263   -0.9289   11.3133 H   0  0  0  0  0  0  0  0  0  0  0  0
    4.1749    0.9512   11.4281 H   0  0  0  0  0  0  0  0  0  0  0  0
    2.6171    1.1689   10.2394 H   0  0  0  0  0  0  0  0  0  0  0  0
    2.2439    0.3132   11.7905 H   0  0  0  0  0  0  0  0  0  0  0  0
    1.4328    0.0840    9.1763 H   0  0  0  0  0  0  0  0  0  0  0  0
    1.3025   -1.4714   10.5493 H   0  0  0  0  0  0  0  0  0  0  0  0
   -1.1724   -0.6733   11.6116 H   0  0  0  0  0  0  0  0  0  0  0  0
   -6.0705    1.7191    8.7749 H   0  0  0  0  0  0  0  0  0  0  0  0
   -7.1059    0.4923    9.3603 H   0  0  0  0  0  0  0  0  0  0  0  0
   -7.9489    1.6165    7.2732 H   0  0  0  0  0  0  0  0  0  0  0  0
   -6.4029    1.3797    6.4433 H   0  0  0  0  0  0  0  0  0  0  0  0
   -8.1878   -0.3489    5.8201 H   0  0  0  0  0  0  0  0  0  0  0  0
   -5.4420   -2.0896    8.2153 H   0  0  0  0  0  0  0  0  0  0  0  0
   -6.7132   -1.4280    9.2112 H   0  0  0  0  0  0  0  0  0  0  0  0
   -3.5839   -3.1220    6.7877 H   0  0  0  0  0  0  0  0  0  0  0  0
   -4.4808   -1.3138    5.3519 H   0  0  0  0  0  0  0  0  0  0  0  0
   -4.1102    1.0343    6.1695 H   0  0  0  0  0  0  0  0  0  0  0  0
   -2.6182    1.4180    8.0661 H   0  0  0  0  0  0  0  0  0  0  0  0
  1  2  3  0
  2  3  1  0
  3  4  1  0
  4  5  1  0
  5  6  1  0
  6  7  1  0
  7  8  2  0
  8  9  1  0
  9 10  2  0
  9 11  1  0
 11 12  1  0
 12 13  1  0
 13 14  1  0
 14 15  1  0
 15 16  2  0
 15 17  1  0
  8 18  1  0
 18 19  2  0
 19 20  1  0
 20 21  2  0
 21 22  1  0
 22 23  2  0
 23  6  1  0
 17 11  1  0
 23 18  1  0
  3 24  1  0
  3 25  1  0
  4 26  1  0
  4 27  1  0
  5 28  1  0
  5 29  1  0
  7 30  1  0
 12 31  1  0
 12 32  1  0
 13 33  1  0
 13 34  1  0
 14 35  1  0
 17 36  1  0
 17 37  1  0
 19 38  1  0
 20 39  1  0
 21 40  1  0
 22 41  1  0
M  END
>  <Energy>  (458) 
808.2766580437285

>  <compound_id>  (458) 
5383

>  <target_id>  (458) 
1

>  <reference_id>  (458) 
24

>  <inspiration_ids>  (458) 
[97, 24]

>  <energy_score>  (458) 
733.8401708067447

>  <distance_score>  (458) 
6.806101407767503

>  <path>  (458) 
/opt/xchem-fragalysis-2/maxwin/BulkDock/SCRATCH/511018/C5383-P24/C5383-P24.minimised.mol

>  <scratch_subdir>  (458) 
/opt/xchem-fragalysis-2/maxwin/BulkDock/SCRATCH/511018/C5383-P24

>  <fragmenstein_runtime>  (458) 
17.577605962753296

>  <fragmenstein_outcome>  (458) 
too moved

>  <fragmenstein_mode>  (458) 
expansion

>  <fragmenstein_error>  (458) 


$$$$
C5394-P97
     RDKit          3D

 51 54  0  0  0  0  0  0  0  0999 V2000
   -6.4156    5.8451    6.4559 C   0  0  0  0  0  0  0  0  0  0  0  0
   -5.0679    5.3586    5.9803 N   0  0  0  0  0  0  0  0  0  0  0  0
   -4.5971    6.3020    7.0342 C   0  0  0  0  0  0  0  0  0  0  0  0
   -5.0489    3.9354    5.9303 C   0  0  0  0  0  0  0  0  0  0  0  0
   -4.7297    3.1262    6.7644 O   0  0  0  0  0  0  0  0  0  0  0  0
   -5.4192    3.4834    4.5209 C   0  0  0  0  0  0  0  0  0  0  0  0
   -5.7203    1.9832    4.4366 C   0  0  0  0  0  0  0  0  0  0  0  0
   -6.9887    1.5532    5.0093 N   0  0  0  0  0  0  0  0  0  0  0  0
   -7.3603    1.8310    6.3175 C   0  0  0  0  0  0  0  0  0  0  0  0
   -7.6356    0.7123    7.3673 C   0  0  0  0  0  0  0  0  0  0  0  0
   -8.7295    0.7750    8.2007 C   0  0  0  0  0  0  0  0  0  0  0  0
   -9.1217   -0.5235    8.4123 N   0  0  0  0  0  0  0  0  0  0  0  0
   -8.2303   -1.3835    7.8113 C   0  0  0  0  0  0  0  0  0  0  0  0
   -8.3182   -2.7596    7.5860 C   0  0  0  0  0  0  0  0  0  0  0  0
   -7.2408   -3.3891    6.9700 C   0  0  0  0  0  0  0  0  0  0  0  0
   -6.0770   -2.6750    6.7091 C   0  0  0  0  0  0  0  0  0  0  0  0
   -6.0221   -1.2845    6.8915 C   0  0  0  0  0  0  0  0  0  0  0  0
   -7.1548   -0.6181    7.3739 C   0  0  0  0  0  0  0  0  0  0  0  0
   -8.0861    2.9333    6.2468 N   0  0  0  0  0  0  0  0  0  0  0  0
   -8.6647    2.9059    4.9918 N   0  0  0  0  0  0  0  0  0  0  0  0
   -8.1884    1.8381    4.3707 C   0  0  0  0  0  0  0  0  0  0  0  0
   -8.8332    1.0136    3.4953 N   0  0  0  0  0  0  0  0  0  0  0  0
   -8.2138   -0.1918    2.9250 C   0  0  0  0  0  0  0  0  0  0  0  0
   -8.2773   -1.3833    3.8883 C   0  0  0  0  0  0  0  0  0  0  0  0
   -9.5530   -1.5459    4.5609 N   0  0  0  0  0  0  0  0  0  0  0  0
  -10.3336   -0.4532    4.8798 C   0  0  0  0  0  0  0  0  0  0  0  0
  -11.1146   -0.5021    5.8280 O   0  0  0  0  0  0  0  0  0  0  0  0
  -10.2432    0.7427    3.9105 C   0  0  0  0  0  0  0  0  0  0  0  0
   -7.1497    5.3835    5.7817 H   0  0  0  0  0  0  0  0  0  0  0  0
   -6.6032    6.9211    6.3192 H   0  0  0  0  0  0  0  0  0  0  0  0
   -6.7004    5.4633    7.4489 H   0  0  0  0  0  0  0  0  0  0  0  0
   -3.5047    6.1751    7.0146 H   0  0  0  0  0  0  0  0  0  0  0  0
   -4.7426    7.3654    6.7967 H   0  0  0  0  0  0  0  0  0  0  0  0
   -4.8531    6.0171    8.0662 H   0  0  0  0  0  0  0  0  0  0  0  0
   -4.5507    3.6991    3.8860 H   0  0  0  0  0  0  0  0  0  0  0  0
   -6.2601    4.0697    4.1372 H   0  0  0  0  0  0  0  0  0  0  0  0
   -5.7491    1.6979    3.3790 H   0  0  0  0  0  0  0  0  0  0  0  0
   -4.9466    1.3721    4.9078 H   0  0  0  0  0  0  0  0  0  0  0  0
   -9.3962    1.5907    8.4470 H   0  0  0  0  0  0  0  0  0  0  0  0
  -10.0111   -0.8123    8.8004 H   0  0  0  0  0  0  0  0  0  0  0  0
   -9.1971   -3.3229    7.8769 H   0  0  0  0  0  0  0  0  0  0  0  0
   -7.2796   -4.4595    6.7850 H   0  0  0  0  0  0  0  0  0  0  0  0
   -5.2014   -3.2159    6.3644 H   0  0  0  0  0  0  0  0  0  0  0  0
   -5.1309   -0.7166    6.6535 H   0  0  0  0  0  0  0  0  0  0  0  0
   -7.1890    0.0043    2.6009 H   0  0  0  0  0  0  0  0  0  0  0  0
   -8.7691   -0.4512    2.0142 H   0  0  0  0  0  0  0  0  0  0  0  0
   -8.0525   -2.3182    3.3657 H   0  0  0  0  0  0  0  0  0  0  0  0
   -7.5232   -1.2502    4.6590 H   0  0  0  0  0  0  0  0  0  0  0  0
   -9.6243   -2.2778    5.2591 H   0  0  0  0  0  0  0  0  0  0  0  0
  -10.7133    1.6166    4.3763 H   0  0  0  0  0  0  0  0  0  0  0  0
  -10.8362    0.4943    3.0219 H   0  0  0  0  0  0  0  0  0  0  0  0
  1  2  1  0
  2  3  1  0
  2  4  1  0
  4  5  2  0
  4  6  1  0
  6  7  1  0
  7  8  1  0
  8  9  1  0
  9 10  1  0
 10 11  2  0
 11 12  1  0
 12 13  1  0
 13 14  2  0
 14 15  1  0
 15 16  2  0
 16 17  1  0
 17 18  2  0
  9 19  2  0
 19 20  1  0
 20 21  2  0
 21 22  1  0
 22 23  1  0
 23 24  1  0
 24 25  1  0
 25 26  1  0
 26 27  2  0
 26 28  1  0
 21  8  1  0
 28 22  1  0
 18 10  1  0
 18 13  1  0
  1 29  1  0
  1 30  1  0
  1 31  1  0
  3 32  1  0
  3 33  1  0
  3 34  1  0
  6 35  1  0
  6 36  1  0
  7 37  1  0
  7 38  1  0
 11 39  1  0
 12 40  1  0
 14 41  1  0
 15 42  1  0
 16 43  1  0
 17 44  1  0
 23 45  1  0
 23 46  1  0
 24 47  1  0
 24 48  1  0
 25 49  1  0
 28 50  1  0
 28 51  1  0
M  END
>  <Energy>  (459) 
172.66939658075037

>  <compound_id>  (459) 
5394

>  <target_id>  (459) 
1

>  <reference_id>  (459) 
97

>  <inspiration_ids>  (459) 
[97, 24]

>  <energy_score>  (459) 
50.406026125381175

>  <distance_score>  (459) 
12.464840516275602

>  <path>  (459) 
/opt/xchem-fragalysis-2/maxwin/BulkDock/SCRATCH/511018/C5394-P97/C5394-P97.minimised.mol

>  <scratch_subdir>  (459) 
/opt/xchem-fragalysis-2/maxwin/BulkDock/SCRATCH/511018/C5394-P97

>  <fragmenstein_runtime>  (459) 
12.970030069351196

>  <fragmenstein_outcome>  (459) 
too moved

>  <fragmenstein_mode>  (459) 
expansion

>  <fragmenstein_error>  (459) 


$$$$
C5394-P24
     RDKit          3D

 51 54  0  0  0  0  0  0  0  0999 V2000
   -5.4509    3.2732    1.9851 C   0  0  0  0  0  0  0  0  0  0  0  0
   -5.0668    2.1323    1.0737 N   0  0  0  0  0  0  0  0  0  0  0  0
   -3.9121    3.0332    0.7907 C   0  0  0  0  0  0  0  0  0  0  0  0
   -5.1310    0.8951    1.7800 C   0  0  0  0  0  0  0  0  0  0  0  0
   -4.2884    0.3069    2.4039 O   0  0  0  0  0  0  0  0  0  0  0  0
   -6.5057    0.2683    1.5563 C   0  0  0  0  0  0  0  0  0  0  0  0
   -6.8627   -0.7532    2.6403 C   0  0  0  0  0  0  0  0  0  0  0  0
   -7.4805   -0.1816    3.8271 N   0  0  0  0  0  0  0  0  0  0  0  0
   -7.1079    0.9956    4.4190 C   0  0  0  0  0  0  0  0  0  0  0  0
   -5.9298    1.2051    5.3841 C   0  0  0  0  0  0  0  0  0  0  0  0
   -5.6512    2.4039    5.9977 C   0  0  0  0  0  0  0  0  0  0  0  0
   -4.7391    2.1518    6.9828 N   0  0  0  0  0  0  0  0  0  0  0  0
   -4.4827    0.8013    7.0430 C   0  0  0  0  0  0  0  0  0  0  0  0
   -3.7612    0.0727    7.9791 C   0  0  0  0  0  0  0  0  0  0  0  0
   -3.6412   -1.2983    7.7802 C   0  0  0  0  0  0  0  0  0  0  0  0
   -4.2427   -1.9401    6.7121 C   0  0  0  0  0  0  0  0  0  0  0  0
   -5.0025   -1.2057    5.8089 C   0  0  0  0  0  0  0  0  0  0  0  0
   -5.1284    0.1909    5.9694 C   0  0  0  0  0  0  0  0  0  0  0  0
   -8.1186    1.8278    4.2952 N   0  0  0  0  0  0  0  0  0  0  0  0
   -9.2336    1.0282    4.1379 N   0  0  0  0  0  0  0  0  0  0  0  0
   -8.8291   -0.2300    4.0881 C   0  0  0  0  0  0  0  0  0  0  0  0
   -9.5390   -1.3834    4.2353 N   0  0  0  0  0  0  0  0  0  0  0  0
   -8.8950   -2.6292    4.6992 C   0  0  0  0  0  0  0  0  0  0  0  0
   -8.7861   -2.6524    6.2311 C   0  0  0  0  0  0  0  0  0  0  0  0
  -10.0498   -2.3872    6.8804 N   0  0  0  0  0  0  0  0  0  0  0  0
  -10.9295   -1.4620    6.3675 C   0  0  0  0  0  0  0  0  0  0  0  0
  -11.7713   -0.9501    7.1051 O   0  0  0  0  0  0  0  0  0  0  0  0
  -10.8874   -1.2005    4.8461 C   0  0  0  0  0  0  0  0  0  0  0  0
   -4.8122    3.3642    2.8776 H   0  0  0  0  0  0  0  0  0  0  0  0
   -6.4320    3.0029    2.3966 H   0  0  0  0  0  0  0  0  0  0  0  0
   -5.6523    4.2300    1.4796 H   0  0  0  0  0  0  0  0  0  0  0  0
   -3.2258    3.1927    1.6366 H   0  0  0  0  0  0  0  0  0  0  0  0
   -4.1632    3.9383    0.2195 H   0  0  0  0  0  0  0  0  0  0  0  0
   -3.2992    2.4437    0.0932 H   0  0  0  0  0  0  0  0  0  0  0  0
   -7.2824    1.0348    1.4627 H   0  0  0  0  0  0  0  0  0  0  0  0
   -6.4423   -0.2525    0.5923 H   0  0  0  0  0  0  0  0  0  0  0  0
   -6.0018   -1.3388    2.9659 H   0  0  0  0  0  0  0  0  0  0  0  0
   -7.5857   -1.4601    2.2155 H   0  0  0  0  0  0  0  0  0  0  0  0
   -6.0787    3.3892    5.8677 H   0  0  0  0  0  0  0  0  0  0  0  0
   -4.3826    2.8366    7.6364 H   0  0  0  0  0  0  0  0  0  0  0  0
   -3.3327    0.5399    8.8495 H   0  0  0  0  0  0  0  0  0  0  0  0
   -3.0917   -1.8806    8.5022 H   0  0  0  0  0  0  0  0  0  0  0  0
   -4.1517   -3.0186    6.6115 H   0  0  0  0  0  0  0  0  0  0  0  0
   -5.5181   -1.7323    5.0192 H   0  0  0  0  0  0  0  0  0  0  0  0
   -9.5160   -3.4725    4.3707 H   0  0  0  0  0  0  0  0  0  0  0  0
   -7.9094   -2.7817    4.2480 H   0  0  0  0  0  0  0  0  0  0  0  0
   -8.0833   -1.8860    6.5755 H   0  0  0  0  0  0  0  0  0  0  0  0
   -8.4287   -3.6268    6.5783 H   0  0  0  0  0  0  0  0  0  0  0  0
  -10.1472   -2.5277    7.8871 H   0  0  0  0  0  0  0  0  0  0  0  0
  -11.5722   -1.9053    4.3706 H   0  0  0  0  0  0  0  0  0  0  0  0
  -11.2925   -0.1992    4.6579 H   0  0  0  0  0  0  0  0  0  0  0  0
  1  2  1  0
  2  3  1  0
  2  4  1  0
  4  5  2  0
  4  6  1  0
  6  7  1  0
  7  8  1  0
  8  9  1  0
  9 10  1  0
 10 11  2  0
 11 12  1  0
 12 13  1  0
 13 14  2  0
 14 15  1  0
 15 16  2  0
 16 17  1  0
 17 18  2  0
  9 19  2  0
 19 20  1  0
 20 21  2  0
 21 22  1  0
 22 23  1  0
 23 24  1  0
 24 25  1  0
 25 26  1  0
 26 27  2  0
 26 28  1  0
 21  8  1  0
 28 22  1  0
 18 10  1  0
 18 13  1  0
  1 29  1  0
  1 30  1  0
  1 31  1  0
  3 32  1  0
  3 33  1  0
  3 34  1  0
  6 35  1  0
  6 36  1  0
  7 37  1  0
  7 38  1  0
 11 39  1  0
 12 40  1  0
 14 41  1  0
 15 42  1  0
 16 43  1  0
 17 44  1  0
 23 45  1  0
 23 46  1  0
 24 47  1  0
 24 48  1  0
 25 49  1  0
 28 50  1  0
 28 51  1  0
M  END
>  <Energy>  (460) 
143.32804956830054

>  <compound_id>  (460) 
5394

>  <target_id>  (460) 
1

>  <reference_id>  (460) 
24

>  <inspiration_ids>  (460) 
[97, 24]

>  <energy_score>  (460) 
21.064679112932424

>  <distance_score>  (460) 
12.672909419935902

>  <path>  (460) 
/opt/xchem-fragalysis-2/maxwin/BulkDock/SCRATCH/511018/C5394-P24/C5394-P24.minimised.mol

>  <scratch_subdir>  (460) 
/opt/xchem-fragalysis-2/maxwin/BulkDock/SCRATCH/511018/C5394-P24

>  <fragmenstein_runtime>  (460) 
14.848176002502441

>  <fragmenstein_outcome>  (460) 
too moved

>  <fragmenstein_mode>  (460) 
expansion

>  <fragmenstein_error>  (460) 


$$$$
C5450-P97
     RDKit          3D

 54 55  0  0  0  0  0  0  0  0999 V2000
    7.0897   -1.0003   11.6057 C   0  0  0  0  0  0  0  0  0  0  0  0
    5.6940   -0.8589   12.0167 C   0  0  0  0  0  0  0  0  0  0  0  0
    4.3554    0.0794   11.0080 C   0  0  0  0  0  0  0  0  0  0  0  0
    2.8762    0.2124   10.9094 C   0  0  0  0  0  0  0  0  0  0  0  0
    1.5651   -1.0958   10.2775 C   0  0  0  0  0  0  0  0  0  0  0  0
    1.7141   -2.2238   10.3979 O   0  0  0  0  0  0  0  0  0  0  0  0
    0.5531   -0.4096    9.8341 N   0  0  0  0  0  0  0  0  0  0  0  0
   -1.3561   -0.9538    9.2470 C   0  0  0  0  0  0  0  0  0  0  0  0
   -2.6505    0.1459    8.8482 C   0  0  0  0  0  0  0  0  0  0  0  0
   -3.4575   -0.9412    8.1900 C   0  0  0  0  0  0  0  0  0  0  0  0
   -4.8038   -1.0520    7.4211 C   0  0  0  0  0  0  0  0  0  0  0  0
   -5.3116    0.1180    6.5988 C   0  0  0  0  0  0  0  0  0  0  0  0
   -6.6181   -0.1096    6.0680 N   0  0  0  0  0  0  0  0  0  0  0  0
   -7.9042    0.1792    6.5998 C   0  0  0  0  0  0  0  0  0  0  0  0
   -8.2262    0.7595    7.5946 O   0  0  0  0  0  0  0  0  0  0  0  0
   -8.9834   -0.3727    5.6590 C   0  0  0  0  0  0  0  0  0  0  0  0
   -8.6169   -1.6173    4.8959 N   0  0  0  0  0  0  0  0  0  0  0  0
   -9.8989   -2.2085    4.4182 C   0  0  0  0  0  0  0  0  0  0  0  0
  -10.7289   -2.9184    5.5236 C   0  0  0  0  0  0  0  0  0  0  0  0
  -10.1130   -2.8994    6.8309 N   0  0  0  0  0  0  0  0  0  0  0  0
   -8.7621   -3.0420    6.9513 C   0  0  0  0  0  0  0  0  0  0  0  0
   -8.2392   -3.4307    7.9850 O   0  0  0  0  0  0  0  0  0  0  0  0
   -7.9727   -2.6997    5.7056 C   0  0  0  0  0  0  0  0  0  0  0  0
   -2.1481   -1.6872    8.0477 C   0  0  0  0  0  0  0  0  0  0  0  0
    7.7420   -0.4267   12.2552 H   0  0  0  0  0  0  0  0  0  0  0  0
    7.3305   -2.0362   11.7344 H   0  0  0  0  0  0  0  0  0  0  0  0
    7.1100   -0.7934   10.5580 H   0  0  0  0  0  0  0  0  0  0  0  0
    5.7667   -0.4099   12.9480 H   0  0  0  0  0  0  0  0  0  0  0  0
    5.6261   -1.8871   12.3841 H   0  0  0  0  0  0  0  0  0  0  0  0
    4.2237    1.0445   11.6113 H   0  0  0  0  0  0  0  0  0  0  0  0
    4.7156    0.5526   10.0783 H   0  0  0  0  0  0  0  0  0  0  0  0
    2.5607    0.4535   11.9529 H   0  0  0  0  0  0  0  0  0  0  0  0
    2.7523    1.1028   10.2444 H   0  0  0  0  0  0  0  0  0  0  0  0
    0.8135    0.5324    9.7761 H   0  0  0  0  0  0  0  0  0  0  0  0
   -1.3487   -1.2222   10.3060 H   0  0  0  0  0  0  0  0  0  0  0  0
   -2.3507    1.0636    8.3954 H   0  0  0  0  0  0  0  0  0  0  0  0
   -3.4578    0.4409    9.4917 H   0  0  0  0  0  0  0  0  0  0  0  0
   -3.9432   -1.4435    9.0352 H   0  0  0  0  0  0  0  0  0  0  0  0
   -4.7976   -1.9849    6.8498 H   0  0  0  0  0  0  0  0  0  0  0  0
   -5.6054   -1.2251    8.1596 H   0  0  0  0  0  0  0  0  0  0  0  0
   -5.4034    0.9998    7.2384 H   0  0  0  0  0  0  0  0  0  0  0  0
   -4.7054    0.3185    5.7184 H   0  0  0  0  0  0  0  0  0  0  0  0
   -6.7289   -0.5515    5.1552 H   0  0  0  0  0  0  0  0  0  0  0  0
   -9.8908   -0.4927    6.2613 H   0  0  0  0  0  0  0  0  0  0  0  0
   -9.1928    0.4179    4.9273 H   0  0  0  0  0  0  0  0  0  0  0  0
   -9.6701   -2.9401    3.6315 H   0  0  0  0  0  0  0  0  0  0  0  0
  -10.5127   -1.4483    3.9176 H   0  0  0  0  0  0  0  0  0  0  0  0
  -11.7098   -2.4475    5.6299 H   0  0  0  0  0  0  0  0  0  0  0  0
  -10.8403   -3.9738    5.2623 H   0  0  0  0  0  0  0  0  0  0  0  0
  -10.6250   -3.1506    7.6786 H   0  0  0  0  0  0  0  0  0  0  0  0
   -6.9532   -2.4543    5.9993 H   0  0  0  0  0  0  0  0  0  0  0  0
   -7.8791   -3.6098    5.0985 H   0  0  0  0  0  0  0  0  0  0  0  0
   -1.6447   -1.5774    7.1275 H   0  0  0  0  0  0  0  0  0  0  0  0
   -2.5388   -2.6931    8.1381 H   0  0  0  0  0  0  0  0  0  0  0  0
  1  2  1  0
  2  3  1  0
  3  4  1  0
  4  5  1  0
  5  6  2  0
  5  7  1  0
  7  8  1  0
  8  9  1  0
  9 10  1  0
 10 11  1  0
 11 12  1  0
 12 13  1  0
 13 14  1  0
 14 15  2  0
 14 16  1  0
 16 17  1  0
 17 18  1  0
 18 19  1  0
 19 20  1  0
 20 21  1  0
 21 22  2  0
 21 23  1  0
 10 24  1  0
 24  8  1  0
 23 17  1  0
  1 25  1  0
  1 26  1  0
  1 27  1  0
  2 28  1  0
  2 29  1  0
  3 30  1  0
  3 31  1  0
  4 32  1  0
  4 33  1  0
  7 34  1  0
  8 35  1  0
  9 36  1  0
  9 37  1  0
 10 38  1  0
 11 39  1  0
 11 40  1  0
 12 41  1  0
 12 42  1  0
 13 43  1  0
 16 44  1  0
 16 45  1  0
 18 46  1  0
 18 47  1  0
 19 48  1  0
 19 49  1  0
 20 50  1  0
 23 51  1  0
 23 52  1  0
 24 53  1  0
 24 54  1  0
M  END
>  <Energy>  (461) 
427.75642321336574

>  <compound_id>  (461) 
5450

>  <target_id>  (461) 
1

>  <reference_id>  (461) 
97

>  <inspiration_ids>  (461) 
[97, 24]

>  <energy_score>  (461) 
298.5904578817565

>  <distance_score>  (461) 
5.420809544879267

>  <path>  (461) 
/opt/xchem-fragalysis-2/maxwin/BulkDock/SCRATCH/511018/C5450-P97/C5450-P97.minimised.mol

>  <scratch_subdir>  (461) 
/opt/xchem-fragalysis-2/maxwin/BulkDock/SCRATCH/511018/C5450-P97

>  <fragmenstein_runtime>  (461) 
49.71693563461304

>  <fragmenstein_outcome>  (461) 
too moved

>  <fragmenstein_mode>  (461) 
expansion

>  <fragmenstein_error>  (461) 


$$$$
C5450-P24
     RDKit          3D

 54 55  0  0  0  0  0  0  0  0999 V2000
    6.5579   -1.6885   12.6122 C   0  0  0  0  0  0  0  0  0  0  0  0
    5.6455   -2.7502   13.2868 C   0  0  0  0  0  0  0  0  0  0  0  0
    3.9360   -3.3447   12.4654 C   0  0  0  0  0  0  0  0  0  0  0  0
    2.7302   -2.3761   11.3909 C   0  0  0  0  0  0  0  0  0  0  0  0
    1.1050   -1.6770   10.1572 C   0  0  0  0  0  0  0  0  0  0  0  0
    1.3449   -1.8670    9.0659 O   0  0  0  0  0  0  0  0  0  0  0  0
   -0.5423   -1.0920   10.3755 N   0  0  0  0  0  0  0  0  0  0  0  0
   -2.1472   -0.8426    9.0546 C   0  0  0  0  0  0  0  0  0  0  0  0
   -2.3446   -0.3970    7.6491 C   0  0  0  0  0  0  0  0  0  0  0  0
   -3.7851   -0.8144    7.5572 C   0  0  0  0  0  0  0  0  0  0  0  0
   -4.2114   -1.2012    6.1508 C   0  0  0  0  0  0  0  0  0  0  0  0
   -5.4288   -2.1063    6.1743 C   0  0  0  0  0  0  0  0  0  0  0  0
   -6.5498   -1.4656    5.5618 N   0  0  0  0  0  0  0  0  0  0  0  0
   -6.8350   -1.1792    4.1800 C   0  0  0  0  0  0  0  0  0  0  0  0
   -6.1705   -1.3337    3.1963 O   0  0  0  0  0  0  0  0  0  0  0  0
   -8.2447   -0.5283    4.1156 C   0  0  0  0  0  0  0  0  0  0  0  0
   -9.0156   -1.0444    5.2552 N   0  0  0  0  0  0  0  0  0  0  0  0
   -9.6690   -2.3275    4.9568 C   0  0  0  0  0  0  0  0  0  0  0  0
  -10.1118   -2.9537    6.2773 C   0  0  0  0  0  0  0  0  0  0  0  0
  -10.7919   -2.0258    7.1620 N   0  0  0  0  0  0  0  0  0  0  0  0
  -10.5616   -0.6721    7.1274 C   0  0  0  0  0  0  0  0  0  0  0  0
  -10.8743    0.0417    8.0782 O   0  0  0  0  0  0  0  0  0  0  0  0
   -9.9838   -0.1004    5.8228 C   0  0  0  0  0  0  0  0  0  0  0  0
   -3.3426   -1.8060    8.6219 C   0  0  0  0  0  0  0  0  0  0  0  0
    7.0252   -2.0075   11.6878 H   0  0  0  0  0  0  0  0  0  0  0  0
    7.3540   -1.4349   13.3082 H   0  0  0  0  0  0  0  0  0  0  0  0
    6.0098   -0.8079   12.3519 H   0  0  0  0  0  0  0  0  0  0  0  0
    6.3187   -3.2881   13.9475 H   0  0  0  0  0  0  0  0  0  0  0  0
    5.3539   -2.4549   14.3484 H   0  0  0  0  0  0  0  0  0  0  0  0
    3.2699   -3.6884   13.2702 H   0  0  0  0  0  0  0  0  0  0  0  0
    4.2112   -4.2191   11.8611 H   0  0  0  0  0  0  0  0  0  0  0  0
    2.8246   -3.2625   10.7157 H   0  0  0  0  0  0  0  0  0  0  0  0
    3.5805   -1.6143   11.4385 H   0  0  0  0  0  0  0  0  0  0  0  0
   -0.6548   -0.8555   11.3484 H   0  0  0  0  0  0  0  0  0  0  0  0
   -2.8379   -0.0768    9.5533 H   0  0  0  0  0  0  0  0  0  0  0  0
   -1.7675   -1.0162    6.9886 H   0  0  0  0  0  0  0  0  0  0  0  0
   -2.4326    0.6806    7.6167 H   0  0  0  0  0  0  0  0  0  0  0  0
   -4.4833   -0.0613    7.9570 H   0  0  0  0  0  0  0  0  0  0  0  0
   -3.4089   -1.7316    5.6445 H   0  0  0  0  0  0  0  0  0  0  0  0
   -4.3847   -0.2919    5.5617 H   0  0  0  0  0  0  0  0  0  0  0  0
   -5.7287   -2.3925    7.1860 H   0  0  0  0  0  0  0  0  0  0  0  0
   -5.2360   -3.0203    5.6086 H   0  0  0  0  0  0  0  0  0  0  0  0
   -7.3858   -1.2809    6.1191 H   0  0  0  0  0  0  0  0  0  0  0  0
   -8.0848    0.5534    4.1936 H   0  0  0  0  0  0  0  0  0  0  0  0
   -8.7212   -0.7494    3.1548 H   0  0  0  0  0  0  0  0  0  0  0  0
  -10.5287   -2.1759    4.2922 H   0  0  0  0  0  0  0  0  0  0  0  0
   -8.9848   -3.0228    4.4563 H   0  0  0  0  0  0  0  0  0  0  0  0
  -10.7835   -3.7925    6.0905 H   0  0  0  0  0  0  0  0  0  0  0  0
   -9.2400   -3.3283    6.8266 H   0  0  0  0  0  0  0  0  0  0  0  0
  -11.0181   -2.3727    8.0946 H   0  0  0  0  0  0  0  0  0  0  0  0
  -10.8061    0.1188    5.1327 H   0  0  0  0  0  0  0  0  0  0  0  0
   -9.4779    0.8365    6.0823 H   0  0  0  0  0  0  0  0  0  0  0  0
   -3.1857   -2.7745    8.1675 H   0  0  0  0  0  0  0  0  0  0  0  0
   -4.1774   -1.7261    9.3017 H   0  0  0  0  0  0  0  0  0  0  0  0
  1  2  1  0
  2  3  1  0
  3  4  1  0
  4  5  1  0
  5  6  2  0
  5  7  1  0
  7  8  1  0
  8  9  1  0
  9 10  1  0
 10 11  1  0
 11 12  1  0
 12 13  1  0
 13 14  1  0
 14 15  2  0
 14 16  1  0
 16 17  1  0
 17 18  1  0
 18 19  1  0
 19 20  1  0
 20 21  1  0
 21 22  2  0
 21 23  1  0
 10 24  1  0
 24  8  1  0
 23 17  1  0
  1 25  1  0
  1 26  1  0
  1 27  1  0
  2 28  1  0
  2 29  1  0
  3 30  1  0
  3 31  1  0
  4 32  1  0
  4 33  1  0
  7 34  1  0
  8 35  1  0
  9 36  1  0
  9 37  1  0
 10 38  1  0
 11 39  1  0
 11 40  1  0
 12 41  1  0
 12 42  1  0
 13 43  1  0
 16 44  1  0
 16 45  1  0
 18 46  1  0
 18 47  1  0
 19 48  1  0
 19 49  1  0
 20 50  1  0
 23 51  1  0
 23 52  1  0
 24 53  1  0
 24 54  1  0
M  END
>  <Energy>  (462) 
607.39117262398406

>  <compound_id>  (462) 
5450

>  <target_id>  (462) 
1

>  <reference_id>  (462) 
24

>  <inspiration_ids>  (462) 
[97, 24]

>  <energy_score>  (462) 
478.2252072923653

>  <distance_score>  (462) 
5.016005512523183

>  <path>  (462) 
/opt/xchem-fragalysis-2/maxwin/BulkDock/SCRATCH/511018/C5450-P24/C5450-P24.minimised.mol

>  <scratch_subdir>  (462) 
/opt/xchem-fragalysis-2/maxwin/BulkDock/SCRATCH/511018/C5450-P24

>  <fragmenstein_runtime>  (462) 
52.41162872314453

>  <fragmenstein_outcome>  (462) 
too moved

>  <fragmenstein_mode>  (462) 
expansion

>  <fragmenstein_error>  (462) 


$$$$
C5474-P96
     RDKit          3D

 49 50  0  0  0  0  0  0  0  0999 V2000
  -13.9702  -24.9202   15.2583 C   0  0  0  0  0  0  0  0  0  0  0  0
  -13.9078  -23.3964   15.8778 C   0  0  0  0  0  0  0  0  0  0  0  0
  -13.0077  -22.1856   17.3121 N   0  0  0  0  0  0  0  0  0  0  0  0
  -10.9636  -22.2862   16.0696 C   0  0  0  0  0  0  0  0  0  0  0  0
  -10.5751  -22.6506   14.2982 C   0  0  0  0  0  0  0  0  0  0  0  0
  -10.7875  -23.8554   13.5209 N   0  0  0  0  0  0  0  0  0  0  0  0
  -10.7054  -25.2499   13.8903 C   0  0  0  0  0  0  0  0  0  0  0  0
  -10.5200  -25.7656   14.9533 O   0  0  0  0  0  0  0  0  0  0  0  0
  -10.7896  -26.0943   12.6121 C   0  0  0  0  0  0  0  0  0  0  0  0
  -11.5844  -27.3021   12.7355 N   0  0  0  0  0  0  0  0  0  0  0  0
  -12.9452  -27.3888   12.6053 C   0  0  0  0  0  0  0  0  0  0  0  0
  -13.2439  -28.7306   12.5858 C   0  0  0  0  0  0  0  0  0  0  0  0
  -11.9960  -29.3737   12.6524 C   0  0  0  0  0  0  0  0  0  0  0  0
  -10.9816  -28.5079   12.6927 N   0  0  0  0  0  0  0  0  0  0  0  0
  -12.6509  -22.7643   19.1453 C   0  0  0  0  0  0  0  0  0  0  0  0
  -12.7699  -23.8555   19.6103 O   0  0  0  0  0  0  0  0  0  0  0  0
  -11.8374  -21.6348   20.4445 C   0  0  0  0  0  0  0  0  0  0  0  0
  -11.6996  -21.6377   22.1517 C   0  0  0  0  0  0  0  0  0  0  0  0
  -12.5423  -22.3290   23.2865 C   0  0  0  0  0  0  0  0  0  0  0  0
  -11.7473  -22.5208   24.5686 C   0  0  0  0  0  0  0  0  0  0  0  0
  -12.7082  -23.1688   25.5454 C   0  0  0  0  0  0  0  0  0  0  0  0
  -14.0300  -22.6957   24.9769 C   0  0  0  0  0  0  0  0  0  0  0  0
  -13.7187  -21.7758   23.9079 O   0  0  0  0  0  0  0  0  0  0  0  0
  -15.0084  -25.1099   14.9568 H   0  0  0  0  0  0  0  0  0  0  0  0
  -13.7039  -25.7106   15.9741 H   0  0  0  0  0  0  0  0  0  0  0  0
  -13.3600  -24.9982   14.3567 H   0  0  0  0  0  0  0  0  0  0  0  0
  -14.3577  -23.9361   16.7622 H   0  0  0  0  0  0  0  0  0  0  0  0
  -14.5364  -22.7948   15.1233 H   0  0  0  0  0  0  0  0  0  0  0  0
  -10.2056  -21.4294   16.1762 H   0  0  0  0  0  0  0  0  0  0  0  0
  -10.1246  -23.0675   16.3348 H   0  0  0  0  0  0  0  0  0  0  0  0
   -9.4839  -22.6355   14.3250 H   0  0  0  0  0  0  0  0  0  0  0  0
  -10.9233  -21.8267   13.6701 H   0  0  0  0  0  0  0  0  0  0  0  0
  -10.8709  -23.7840   12.5154 H   0  0  0  0  0  0  0  0  0  0  0  0
  -11.2228  -25.5379   11.7737 H   0  0  0  0  0  0  0  0  0  0  0  0
   -9.7694  -26.3782   12.3287 H   0  0  0  0  0  0  0  0  0  0  0  0
  -13.5726  -26.5123   12.5431 H   0  0  0  0  0  0  0  0  0  0  0  0
  -14.2222  -29.1837   12.5180 H   0  0  0  0  0  0  0  0  0  0  0  0
  -11.7806  -30.4346   12.6554 H   0  0  0  0  0  0  0  0  0  0  0  0
  -11.7225  -20.6250   20.1374 H   0  0  0  0  0  0  0  0  0  0  0  0
  -10.7954  -21.9882   20.3472 H   0  0  0  0  0  0  0  0  0  0  0  0
  -10.6604  -21.9336   22.3244 H   0  0  0  0  0  0  0  0  0  0  0  0
  -11.6505  -20.5859   22.4250 H   0  0  0  0  0  0  0  0  0  0  0  0
  -13.0281  -23.1795   22.8703 H   0  0  0  0  0  0  0  0  0  0  0  0
  -10.7829  -23.0199   24.4950 H   0  0  0  0  0  0  0  0  0  0  0  0
  -11.5961  -21.5071   24.9262 H   0  0  0  0  0  0  0  0  0  0  0  0
  -12.4873  -22.8764   26.5726 H   0  0  0  0  0  0  0  0  0  0  0  0
  -12.6909  -24.2602   25.5851 H   0  0  0  0  0  0  0  0  0  0  0  0
  -14.7375  -22.2046   25.6216 H   0  0  0  0  0  0  0  0  0  0  0  0
  -14.5569  -23.5577   24.5852 H   0  0  0  0  0  0  0  0  0  0  0  0
  1  2  1  0
  2  3  1  0
  3  4  1  0
  4  5  1  0
  5  6  1  0
  6  7  1  0
  7  8  2  0
  7  9  1  0
  9 10  1  0
 10 11  1  0
 11 12  2  0
 12 13  1  0
 13 14  2  0
  3 15  1  0
 15 16  2  0
 15 17  1  0
 17 18  1  0
 18 19  1  0
 19 20  1  0
 20 21  1  0
 21 22  1  0
 22 23  1  0
 14 10  1  0
 23 19  1  0
  1 24  1  0
  1 25  1  0
  1 26  1  0
  2 27  1  0
  2 28  1  0
  4 29  1  0
  4 30  1  0
  5 31  1  0
  5 32  1  0
  6 33  1  0
  9 34  1  0
  9 35  1  0
 11 36  1  0
 12 37  1  0
 13 38  1  0
 17 39  1  0
 17 40  1  0
 18 41  1  0
 18 42  1  0
 19 43  1  0
 20 44  1  0
 20 45  1  0
 21 46  1  0
 21 47  1  0
 22 48  1  0
 22 49  1  0
M  END
>  <Energy>  (463) 
877.55450337242257

>  <compound_id>  (463) 
5474

>  <target_id>  (463) 
1

>  <reference_id>  (463) 
96

>  <inspiration_ids>  (463) 
[96, 28]

>  <energy_score>  (463) 
825.9901546491977

>  <distance_score>  (463) 
3.445280056585925

>  <path>  (463) 
/opt/xchem-fragalysis-2/maxwin/BulkDock/SCRATCH/511018/C5474-P96/C5474-P96.minimised.mol

>  <scratch_subdir>  (463) 
/opt/xchem-fragalysis-2/maxwin/BulkDock/SCRATCH/511018/C5474-P96

>  <fragmenstein_runtime>  (463) 
18.7181077003479

>  <fragmenstein_outcome>  (463) 
too moved

>  <fragmenstein_mode>  (463) 
expansion

>  <fragmenstein_error>  (463) 


$$$$
C5474-P28
     RDKit          3D

 49 50  0  0  0  0  0  0  0  0999 V2000
  -13.7737  -28.0444   19.1138 C   0  0  0  0  0  0  0  0  0  0  0  0
  -13.7102  -26.5954   18.7414 C   0  0  0  0  0  0  0  0  0  0  0  0
  -13.6694  -25.3011   19.4867 N   0  0  0  0  0  0  0  0  0  0  0  0
  -13.8732  -24.7230   17.9168 C   0  0  0  0  0  0  0  0  0  0  0  0
  -13.8618  -25.4657   16.4585 C   0  0  0  0  0  0  0  0  0  0  0  0
  -12.6170  -25.9284   15.8750 N   0  0  0  0  0  0  0  0  0  0  0  0
  -12.0021  -25.6341   14.6016 C   0  0  0  0  0  0  0  0  0  0  0  0
  -12.3249  -24.8707   13.7357 O   0  0  0  0  0  0  0  0  0  0  0  0
  -10.7490  -26.4776   14.3892 C   0  0  0  0  0  0  0  0  0  0  0  0
  -11.0644  -27.5930   13.5203 N   0  0  0  0  0  0  0  0  0  0  0  0
  -11.0064  -27.6160   12.1554 C   0  0  0  0  0  0  0  0  0  0  0  0
  -11.4293  -28.8671   11.7762 C   0  0  0  0  0  0  0  0  0  0  0  0
  -11.7099  -29.5294   12.9850 C   0  0  0  0  0  0  0  0  0  0  0  0
  -11.4895  -28.7602   14.0566 N   0  0  0  0  0  0  0  0  0  0  0  0
  -12.4016  -24.5299   20.2835 C   0  0  0  0  0  0  0  0  0  0  0  0
  -11.2539  -24.8961   20.2912 O   0  0  0  0  0  0  0  0  0  0  0  0
  -12.5292  -22.9566   21.1265 C   0  0  0  0  0  0  0  0  0  0  0  0
  -12.3941  -22.3796   22.7268 C   0  0  0  0  0  0  0  0  0  0  0  0
  -13.2697  -22.5308   24.0533 C   0  0  0  0  0  0  0  0  0  0  0  0
  -13.8409  -23.7836   24.7574 C   0  0  0  0  0  0  0  0  0  0  0  0
  -12.9529  -24.0747   25.9675 C   0  0  0  0  0  0  0  0  0  0  0  0
  -12.3555  -22.7550   26.2814 C   0  0  0  0  0  0  0  0  0  0  0  0
  -12.3972  -21.9764   25.0744 O   0  0  0  0  0  0  0  0  0  0  0  0
  -13.7924  -28.6395   18.1883 H   0  0  0  0  0  0  0  0  0  0  0  0
  -14.7250  -28.2760   19.5903 H   0  0  0  0  0  0  0  0  0  0  0  0
  -12.8838  -28.3878   19.6199 H   0  0  0  0  0  0  0  0  0  0  0  0
  -12.7784  -26.6169   18.1742 H   0  0  0  0  0  0  0  0  0  0  0  0
  -14.6926  -26.6007   18.2539 H   0  0  0  0  0  0  0  0  0  0  0  0
  -13.4809  -23.7429   17.8566 H   0  0  0  0  0  0  0  0  0  0  0  0
  -14.9498  -24.4986   17.9244 H   0  0  0  0  0  0  0  0  0  0  0  0
  -14.2798  -24.7365   15.7503 H   0  0  0  0  0  0  0  0  0  0  0  0
  -14.5634  -26.3046   16.3902 H   0  0  0  0  0  0  0  0  0  0  0  0
  -12.1143  -26.6932   16.3164 H   0  0  0  0  0  0  0  0  0  0  0  0
  -10.3326  -26.8645   15.3244 H   0  0  0  0  0  0  0  0  0  0  0  0
   -9.9778  -25.8668   13.9078 H   0  0  0  0  0  0  0  0  0  0  0  0
  -10.6920  -26.7535   11.5831 H   0  0  0  0  0  0  0  0  0  0  0  0
  -11.5210  -29.2463   10.7684 H   0  0  0  0  0  0  0  0  0  0  0  0
  -12.0670  -30.5411   13.1271 H   0  0  0  0  0  0  0  0  0  0  0  0
  -12.6392  -22.2146   20.3519 H   0  0  0  0  0  0  0  0  0  0  0  0
  -11.4499  -22.7369   21.0666 H   0  0  0  0  0  0  0  0  0  0  0  0
  -11.3616  -22.5446   23.0559 H   0  0  0  0  0  0  0  0  0  0  0  0
  -12.2847  -21.2989   22.5839 H   0  0  0  0  0  0  0  0  0  0  0  0
  -14.1074  -21.8396   23.9350 H   0  0  0  0  0  0  0  0  0  0  0  0
  -14.8393  -23.5159   25.1251 H   0  0  0  0  0  0  0  0  0  0  0  0
  -14.0082  -24.6566   24.1306 H   0  0  0  0  0  0  0  0  0  0  0  0
  -12.1645  -24.8203   25.8368 H   0  0  0  0  0  0  0  0  0  0  0  0
  -13.4126  -24.5180   26.8218 H   0  0  0  0  0  0  0  0  0  0  0  0
  -11.3469  -22.9062   26.6611 H   0  0  0  0  0  0  0  0  0  0  0  0
  -12.8547  -22.2209   27.0788 H   0  0  0  0  0  0  0  0  0  0  0  0
  1  2  1  0
  2  3  1  0
  3  4  1  0
  4  5  1  0
  5  6  1  0
  6  7  1  0
  7  8  2  0
  7  9  1  0
  9 10  1  0
 10 11  1  0
 11 12  2  0
 12 13  1  0
 13 14  2  0
  3 15  1  0
 15 16  2  0
 15 17  1  0
 17 18  1  0
 18 19  1  0
 19 20  1  0
 20 21  1  0
 21 22  1  0
 22 23  1  0
 14 10  1  0
 23 19  1  0
  1 24  1  0
  1 25  1  0
  1 26  1  0
  2 27  1  0
  2 28  1  0
  4 29  1  0
  4 30  1  0
  5 31  1  0
  5 32  1  0
  6 33  1  0
  9 34  1  0
  9 35  1  0
 11 36  1  0
 12 37  1  0
 13 38  1  0
 17 39  1  0
 17 40  1  0
 18 41  1  0
 18 42  1  0
 19 43  1  0
 20 44  1  0
 20 45  1  0
 21 46  1  0
 21 47  1  0
 22 48  1  0
 22 49  1  0
M  END
>  <Energy>  (464) 
284.32839349977274

>  <compound_id>  (464) 
5474

>  <target_id>  (464) 
1

>  <reference_id>  (464) 
28

>  <inspiration_ids>  (464) 
[96, 28]

>  <energy_score>  (464) 
232.7640447765524

>  <distance_score>  (464) 
4.023856586594379

>  <path>  (464) 
/opt/xchem-fragalysis-2/maxwin/BulkDock/SCRATCH/511018/C5474-P28/C5474-P28.minimised.mol

>  <scratch_subdir>  (464) 
/opt/xchem-fragalysis-2/maxwin/BulkDock/SCRATCH/511018/C5474-P28

>  <fragmenstein_runtime>  (464) 
12.345586776733398

>  <fragmenstein_outcome>  (464) 
too moved

>  <fragmenstein_mode>  (464) 
expansion

>  <fragmenstein_error>  (464) 


$$$$
C5477-P96
     RDKit          3D

 41 42  0  0  0  0  0  0  0  0999 V2000
  -12.7640  -26.7345   17.9834 C   0  0  0  0  0  0  0  0  0  0  0  0
  -13.5732  -25.4497   18.4453 C   0  0  0  0  0  0  0  0  0  0  0  0
  -14.9829  -25.7197   17.7262 C   0  0  0  0  0  0  0  0  0  0  0  0
  -14.8160  -25.7860   16.2733 N   0  0  0  0  0  0  0  0  0  0  0  0
  -14.7750  -26.9125   15.3782 C   0  0  0  0  0  0  0  0  0  0  0  0
  -14.9466  -28.0800   15.5828 O   0  0  0  0  0  0  0  0  0  0  0  0
  -14.3586  -26.4087   13.9594 C   0  0  0  0  0  0  0  0  0  0  0  0
  -13.5045  -27.4202   13.1977 C   0  0  0  0  0  0  0  0  0  0  0  0
  -12.5092  -26.5583   12.4581 C   0  0  0  0  0  0  0  0  0  0  0  0
  -12.2878  -25.4489   13.4496 C   0  0  0  0  0  0  0  0  0  0  0  0
  -13.5807  -25.1956   14.0237 O   0  0  0  0  0  0  0  0  0  0  0  0
  -13.2044  -25.0531   20.0678 N   0  0  0  0  0  0  0  0  0  0  0  0
  -12.4456  -23.5940   20.5159 C   0  0  0  0  0  0  0  0  0  0  0  0
  -11.9666  -22.4907   21.6848 C   0  0  0  0  0  0  0  0  0  0  0  0
  -10.9009  -21.6260   21.4180 C   0  0  0  0  0  0  0  0  0  0  0  0
  -10.6862  -20.8638   22.5425 C   0  0  0  0  0  0  0  0  0  0  0  0
  -11.5155  -21.1790   23.5135 N   0  0  0  0  0  0  0  0  0  0  0  0
  -12.2591  -22.1866   23.0305 N   0  0  0  0  0  0  0  0  0  0  0  0
  -13.1699  -22.6934   24.0297 C   0  0  0  0  0  0  0  0  0  0  0  0
  -12.6447  -26.7615   16.8971 H   0  0  0  0  0  0  0  0  0  0  0  0
  -11.7417  -26.8155   18.3478 H   0  0  0  0  0  0  0  0  0  0  0  0
  -13.2805  -27.6455   18.3025 H   0  0  0  0  0  0  0  0  0  0  0  0
  -13.3546  -24.5223   17.9490 H   0  0  0  0  0  0  0  0  0  0  0  0
  -15.6997  -24.9190   17.8909 H   0  0  0  0  0  0  0  0  0  0  0  0
  -15.4155  -26.6707   18.0564 H   0  0  0  0  0  0  0  0  0  0  0  0
  -14.5369  -24.9463   15.7638 H   0  0  0  0  0  0  0  0  0  0  0  0
  -15.2774  -26.1784   13.4084 H   0  0  0  0  0  0  0  0  0  0  0  0
  -14.1025  -28.0477   12.5298 H   0  0  0  0  0  0  0  0  0  0  0  0
  -12.9732  -28.0891   13.8857 H   0  0  0  0  0  0  0  0  0  0  0  0
  -12.9702  -26.1663   11.5444 H   0  0  0  0  0  0  0  0  0  0  0  0
  -11.5908  -27.0851   12.1874 H   0  0  0  0  0  0  0  0  0  0  0  0
  -11.6100  -25.7645   14.2503 H   0  0  0  0  0  0  0  0  0  0  0  0
  -11.8919  -24.5387   12.9940 H   0  0  0  0  0  0  0  0  0  0  0  0
  -12.4225  -25.6891   20.1751 H   0  0  0  0  0  0  0  0  0  0  0  0
  -12.6221  -22.9444   19.6586 H   0  0  0  0  0  0  0  0  0  0  0  0
  -11.5612  -24.1995   20.7103 H   0  0  0  0  0  0  0  0  0  0  0  0
  -10.3032  -21.5912   20.5296 H   0  0  0  0  0  0  0  0  0  0  0  0
   -9.9830  -20.0622   22.6648 H   0  0  0  0  0  0  0  0  0  0  0  0
  -13.8817  -21.9130   24.3035 H   0  0  0  0  0  0  0  0  0  0  0  0
  -12.5943  -22.9558   24.9236 H   0  0  0  0  0  0  0  0  0  0  0  0
  -13.6856  -23.5660   23.6727 H   0  0  0  0  0  0  0  0  0  0  0  0
  1  2  1  0
  2  3  1  0
  3  4  1  0
  4  5  1  0
  5  6  2  0
  5  7  1  0
  7  8  1  0
  8  9  1  0
  9 10  1  0
 10 11  1  0
  2 12  1  0
 12 13  1  0
 13 14  1  0
 14 15  2  0
 15 16  1  0
 16 17  2  0
 17 18  1  0
 18 19  1  0
 11  7  1  0
 18 14  1  0
  1 20  1  0
  1 21  1  0
  1 22  1  0
  2 23  1  0
  3 24  1  0
  3 25  1  0
  4 26  1  0
  7 27  1  0
  8 28  1  0
  8 29  1  0
  9 30  1  0
  9 31  1  0
 10 32  1  0
 10 33  1  0
 12 34  1  0
 13 35  1  0
 13 36  1  0
 15 37  1  0
 16 38  1  0
 19 39  1  0
 19 40  1  0
 19 41  1  0
M  END
>  <Energy>  (465) 
174.86067202854196

>  <compound_id>  (465) 
5477

>  <target_id>  (465) 
1

>  <reference_id>  (465) 
96

>  <inspiration_ids>  (465) 
[96, 28]

>  <energy_score>  (465) 
102.34831447615261

>  <distance_score>  (465) 
6.455791888533814

>  <path>  (465) 
/opt/xchem-fragalysis-2/maxwin/BulkDock/SCRATCH/511018/C5477-P96/C5477-P96.minimised.mol

>  <scratch_subdir>  (465) 
/opt/xchem-fragalysis-2/maxwin/BulkDock/SCRATCH/511018/C5477-P96

>  <fragmenstein_runtime>  (465) 
9.71768069267273

>  <fragmenstein_outcome>  (465) 
too moved

>  <fragmenstein_mode>  (465) 
expansion

>  <fragmenstein_error>  (465) 


$$$$
C5477-P28
     RDKit          3D

 41 42  0  0  0  0  0  0  0  0999 V2000
  -12.2146  -28.3681   18.9263 C   0  0  0  0  0  0  0  0  0  0  0  0
  -11.5161  -26.8380   19.2252 C   0  0  0  0  0  0  0  0  0  0  0  0
  -13.0049  -26.0600   18.9848 C   0  0  0  0  0  0  0  0  0  0  0  0
  -13.4327  -26.0029   17.5674 N   0  0  0  0  0  0  0  0  0  0  0  0
  -12.7418  -26.3764   16.3520 C   0  0  0  0  0  0  0  0  0  0  0  0
  -11.6763  -26.9012   16.1872 O   0  0  0  0  0  0  0  0  0  0  0  0
  -13.6201  -26.0818   15.1120 C   0  0  0  0  0  0  0  0  0  0  0  0
  -12.7642  -25.7156   13.9035 C   0  0  0  0  0  0  0  0  0  0  0  0
  -13.7449  -24.9871   13.0272 C   0  0  0  0  0  0  0  0  0  0  0  0
  -14.6497  -24.3031   14.0291 C   0  0  0  0  0  0  0  0  0  0  0  0
  -14.5603  -25.0155   15.2755 O   0  0  0  0  0  0  0  0  0  0  0  0
  -10.2907  -26.4379   20.8365 N   0  0  0  0  0  0  0  0  0  0  0  0
  -10.3095  -27.1455   22.6964 C   0  0  0  0  0  0  0  0  0  0  0  0
  -10.8275  -27.1108   24.7149 C   0  0  0  0  0  0  0  0  0  0  0  0
  -10.9252  -27.7754   25.9588 C   0  0  0  0  0  0  0  0  0  0  0  0
  -12.1605  -27.3300   26.4913 C   0  0  0  0  0  0  0  0  0  0  0  0
  -12.4669  -26.1557   25.9701 N   0  0  0  0  0  0  0  0  0  0  0  0
  -11.2280  -25.8955   25.5132 N   0  0  0  0  0  0  0  0  0  0  0  0
  -10.4764  -24.8412   26.1689 C   0  0  0  0  0  0  0  0  0  0  0  0
  -13.2841  -28.4097   19.1443 H   0  0  0  0  0  0  0  0  0  0  0  0
  -11.7970  -29.2070   19.4702 H   0  0  0  0  0  0  0  0  0  0  0  0
  -12.0978  -28.6022   17.8642 H   0  0  0  0  0  0  0  0  0  0  0  0
  -10.9577  -26.6561   18.3038 H   0  0  0  0  0  0  0  0  0  0  0  0
  -13.8211  -26.5848   19.4975 H   0  0  0  0  0  0  0  0  0  0  0  0
  -13.0577  -25.0748   19.4514 H   0  0  0  0  0  0  0  0  0  0  0  0
  -14.2846  -25.4999   17.3238 H   0  0  0  0  0  0  0  0  0  0  0  0
  -14.1965  -26.9924   14.9050 H   0  0  0  0  0  0  0  0  0  0  0  0
  -12.3216  -26.5905   13.4180 H   0  0  0  0  0  0  0  0  0  0  0  0
  -11.9467  -25.0422   14.1869 H   0  0  0  0  0  0  0  0  0  0  0  0
  -14.3251  -25.7094   12.4406 H   0  0  0  0  0  0  0  0  0  0  0  0
  -13.2775  -24.2887   12.3279 H   0  0  0  0  0  0  0  0  0  0  0  0
  -14.3444  -23.2719   14.2031 H   0  0  0  0  0  0  0  0  0  0  0  0
  -15.6923  -24.2916   13.6972 H   0  0  0  0  0  0  0  0  0  0  0  0
  -10.8518  -25.5974   21.0932 H   0  0  0  0  0  0  0  0  0  0  0  0
  -10.4094  -28.0068   21.9344 H   0  0  0  0  0  0  0  0  0  0  0  0
  -11.0732  -27.7221   22.9991 H   0  0  0  0  0  0  0  0  0  0  0  0
  -10.3481  -28.5455   26.4192 H   0  0  0  0  0  0  0  0  0  0  0  0
  -12.8002  -27.6672   27.2625 H   0  0  0  0  0  0  0  0  0  0  0  0
  -11.1023  -23.9468   26.1883 H   0  0  0  0  0  0  0  0  0  0  0  0
   -9.5633  -24.6654   25.6250 H   0  0  0  0  0  0  0  0  0  0  0  0
  -10.2579  -25.1382   27.1906 H   0  0  0  0  0  0  0  0  0  0  0  0
  1  2  1  0
  2  3  1  0
  3  4  1  0
  4  5  1  0
  5  6  2  0
  5  7  1  0
  7  8  1  0
  8  9  1  0
  9 10  1  0
 10 11  1  0
  2 12  1  0
 12 13  1  0
 13 14  1  0
 14 15  2  0
 15 16  1  0
 16 17  2  0
 17 18  1  0
 18 19  1  0
 11  7  1  0
 18 14  1  0
  1 20  1  0
  1 21  1  0
  1 22  1  0
  2 23  1  0
  3 24  1  0
  3 25  1  0
  4 26  1  0
  7 27  1  0
  8 28  1  0
  8 29  1  0
  9 30  1  0
  9 31  1  0
 10 32  1  0
 10 33  1  0
 12 34  1  0
 13 35  1  0
 13 36  1  0
 15 37  1  0
 16 38  1  0
 19 39  1  0
 19 40  1  0
 19 41  1  0
M  END
>  <Energy>  (466) 
564.4720745792514

>  <compound_id>  (466) 
5477

>  <target_id>  (466) 
1

>  <reference_id>  (466) 
28

>  <inspiration_ids>  (466) 
[96, 28]

>  <energy_score>  (466) 
491.9597170268514

>  <distance_score>  (466) 
5.891540219786873

>  <path>  (466) 
/opt/xchem-fragalysis-2/maxwin/BulkDock/SCRATCH/511018/C5477-P28/C5477-P28.minimised.mol

>  <scratch_subdir>  (466) 
/opt/xchem-fragalysis-2/maxwin/BulkDock/SCRATCH/511018/C5477-P28

>  <fragmenstein_runtime>  (466) 
9.874900817871094

>  <fragmenstein_outcome>  (466) 
too moved

>  <fragmenstein_mode>  (466) 
expansion

>  <fragmenstein_error>  (466) 


$$$$
C5494-P96
     RDKit          3D

 42 44  0  0  0  0  0  0  0  0999 V2000
   -8.5188  -26.6643   16.3410 C   0  0  0  0  0  0  0  0  0  0  0  0
   -8.0796  -24.8905   16.9057 C   0  0  0  0  0  0  0  0  0  0  0  0
   -6.9047  -24.6511   18.5870 C   0  0  0  0  0  0  0  0  0  0  0  0
   -7.4731  -24.3983   20.5065 C   0  0  0  0  0  0  0  0  0  0  0  0
   -8.6222  -24.6886   20.6164 O   0  0  0  0  0  0  0  0  0  0  0  0
   -6.6087  -23.6555   21.9154 N   0  0  0  0  0  0  0  0  0  0  0  0
   -7.2391  -23.0717   23.5274 C   0  0  0  0  0  0  0  0  0  0  0  0
   -8.6970  -22.0945   23.1839 C   0  0  0  0  0  0  0  0  0  0  0  0
   -9.9442  -22.2221   23.7255 N   0  0  0  0  0  0  0  0  0  0  0  0
   -9.7214  -23.1692   24.6216 N   0  0  0  0  0  0  0  0  0  0  0  0
  -10.5240  -23.5459   25.8456 C   0  0  0  0  0  0  0  0  0  0  0  0
  -10.4620  -24.8230   26.4104 C   0  0  0  0  0  0  0  0  0  0  0  0
  -10.8755  -25.0641   27.7303 C   0  0  0  0  0  0  0  0  0  0  0  0
  -11.3548  -24.0191   28.4914 C   0  0  0  0  0  0  0  0  0  0  0  0
  -11.4505  -22.7987   27.8655 C   0  0  0  0  0  0  0  0  0  0  0  0
  -11.0974  -22.5713   26.5727 N   0  0  0  0  0  0  0  0  0  0  0  0
   -8.3368  -23.5270   24.3813 C   0  0  0  0  0  0  0  0  0  0  0  0
   -9.2285  -24.0744   15.5258 C   0  0  0  0  0  0  0  0  0  0  0  0
  -10.0100  -25.0992   14.6283 C   0  0  0  0  0  0  0  0  0  0  0  0
  -10.6190  -24.3401   13.4929 C   0  0  0  0  0  0  0  0  0  0  0  0
   -9.7811  -23.1031   13.4437 C   0  0  0  0  0  0  0  0  0  0  0  0
   -8.8678  -23.0759   14.5663 O   0  0  0  0  0  0  0  0  0  0  0  0
   -8.5961  -26.8091   15.2722 H   0  0  0  0  0  0  0  0  0  0  0  0
   -7.7471  -27.4217   16.5537 H   0  0  0  0  0  0  0  0  0  0  0  0
   -9.4813  -26.9457   16.7822 H   0  0  0  0  0  0  0  0  0  0  0  0
   -7.2771  -24.2420   16.5263 H   0  0  0  0  0  0  0  0  0  0  0  0
   -6.5936  -23.8097   17.9949 H   0  0  0  0  0  0  0  0  0  0  0  0
   -5.9516  -25.3924   18.6326 H   0  0  0  0  0  0  0  0  0  0  0  0
   -5.6262  -23.5548   21.6736 H   0  0  0  0  0  0  0  0  0  0  0  0
   -8.8147  -21.4003   22.3775 H   0  0  0  0  0  0  0  0  0  0  0  0
  -10.0548  -25.6594   25.8717 H   0  0  0  0  0  0  0  0  0  0  0  0
  -10.7925  -26.0576   28.1594 H   0  0  0  0  0  0  0  0  0  0  0  0
  -11.6576  -24.1459   29.5228 H   0  0  0  0  0  0  0  0  0  0  0  0
  -11.8177  -21.9248   28.3944 H   0  0  0  0  0  0  0  0  0  0  0  0
   -8.5184  -24.4994   24.6331 H   0  0  0  0  0  0  0  0  0  0  0  0
   -9.9100  -23.4518   16.0559 H   0  0  0  0  0  0  0  0  0  0  0  0
  -10.7329  -25.7114   15.1710 H   0  0  0  0  0  0  0  0  0  0  0  0
   -9.3384  -25.7592   14.0799 H   0  0  0  0  0  0  0  0  0  0  0  0
  -11.6755  -24.1326   13.6462 H   0  0  0  0  0  0  0  0  0  0  0  0
  -10.5709  -24.8933   12.5476 H   0  0  0  0  0  0  0  0  0  0  0  0
   -9.1909  -23.0646   12.5224 H   0  0  0  0  0  0  0  0  0  0  0  0
  -10.4341  -22.2299   13.4743 H   0  0  0  0  0  0  0  0  0  0  0  0
  1  2  1  0
  2  3  1  0
  3  4  1  0
  4  5  2  0
  4  6  1  0
  6  7  1  0
  7  8  1  0
  8  9  2  0
  9 10  1  0
 10 11  1  0
 11 12  2  0
 12 13  1  0
 13 14  2  0
 14 15  1  0
 15 16  2  0
 10 17  1  0
  2 18  1  0
 18 19  1  0
 19 20  1  0
 20 21  1  0
 21 22  1  0
 17  7  2  0
 22 18  1  0
 16 11  1  0
  1 23  1  0
  1 24  1  0
  1 25  1  0
  2 26  1  0
  3 27  1  0
  3 28  1  0
  6 29  1  0
  8 30  1  0
 12 31  1  0
 13 32  1  0
 14 33  1  0
 15 34  1  0
 17 35  1  0
 18 36  1  0
 19 37  1  0
 19 38  1  0
 20 39  1  0
 20 40  1  0
 21 41  1  0
 21 42  1  0
M  END
>  <Energy>  (467) 
663.98056777618103

>  <compound_id>  (467) 
5494

>  <target_id>  (467) 
1

>  <reference_id>  (467) 
96

>  <inspiration_ids>  (467) 
[96, 28]

>  <energy_score>  (467) 
561.2018031688567

>  <distance_score>  (467) 
5.119442899008091

>  <path>  (467) 
/opt/xchem-fragalysis-2/maxwin/BulkDock/SCRATCH/511018/C5494-P96/C5494-P96.minimised.mol

>  <scratch_subdir>  (467) 
/opt/xchem-fragalysis-2/maxwin/BulkDock/SCRATCH/511018/C5494-P96

>  <fragmenstein_runtime>  (467) 
45.9058403968811

>  <fragmenstein_outcome>  (467) 
too moved

>  <fragmenstein_mode>  (467) 
expansion

>  <fragmenstein_error>  (467) 


$$$$
C5494-P28
     RDKit          3D

 42 44  0  0  0  0  0  0  0  0999 V2000
  -14.4346  -27.9585   15.0730 C   0  0  0  0  0  0  0  0  0  0  0  0
  -13.3914  -27.1824   15.8848 C   0  0  0  0  0  0  0  0  0  0  0  0
  -14.0967  -26.4811   17.1025 C   0  0  0  0  0  0  0  0  0  0  0  0
  -13.2025  -26.2308   18.3461 C   0  0  0  0  0  0  0  0  0  0  0  0
  -12.3595  -27.0295   18.6452 O   0  0  0  0  0  0  0  0  0  0  0  0
  -13.5253  -24.9037   18.9217 N   0  0  0  0  0  0  0  0  0  0  0  0
  -12.8317  -24.0904   19.9990 C   0  0  0  0  0  0  0  0  0  0  0  0
  -12.5276  -22.4332   20.0435 C   0  0  0  0  0  0  0  0  0  0  0  0
  -11.7676  -21.8011   20.9436 N   0  0  0  0  0  0  0  0  0  0  0  0
  -11.9146  -22.7238   21.8283 N   0  0  0  0  0  0  0  0  0  0  0  0
  -12.6668  -22.4216   23.1200 C   0  0  0  0  0  0  0  0  0  0  0  0
  -12.1029  -21.6326   24.0581 C   0  0  0  0  0  0  0  0  0  0  0  0
  -12.3512  -22.0056   25.4022 C   0  0  0  0  0  0  0  0  0  0  0  0
  -13.0973  -23.1002   25.7700 C   0  0  0  0  0  0  0  0  0  0  0  0
  -13.9121  -23.5539   24.7961 C   0  0  0  0  0  0  0  0  0  0  0  0
  -13.7213  -23.2028   23.5037 N   0  0  0  0  0  0  0  0  0  0  0  0
  -11.8928  -24.0549   20.8969 C   0  0  0  0  0  0  0  0  0  0  0  0
  -12.6534  -26.1919   14.9603 C   0  0  0  0  0  0  0  0  0  0  0  0
  -12.0834  -26.7607   13.6650 C   0  0  0  0  0  0  0  0  0  0  0  0
  -11.0198  -25.7458   13.3268 C   0  0  0  0  0  0  0  0  0  0  0  0
  -10.4596  -25.4364   14.6941 C   0  0  0  0  0  0  0  0  0  0  0  0
  -11.5275  -25.6344   15.6416 O   0  0  0  0  0  0  0  0  0  0  0  0
  -15.1583  -27.2806   14.6077 H   0  0  0  0  0  0  0  0  0  0  0  0
  -13.9691  -28.5593   14.2857 H   0  0  0  0  0  0  0  0  0  0  0  0
  -14.9874  -28.6522   15.7158 H   0  0  0  0  0  0  0  0  0  0  0  0
  -12.6623  -27.9013   16.2796 H   0  0  0  0  0  0  0  0  0  0  0  0
  -14.5575  -25.5511   16.7523 H   0  0  0  0  0  0  0  0  0  0  0  0
  -14.9106  -27.1188   17.4713 H   0  0  0  0  0  0  0  0  0  0  0  0
  -14.2466  -24.4672   18.3647 H   0  0  0  0  0  0  0  0  0  0  0  0
  -12.8247  -21.8963   19.1675 H   0  0  0  0  0  0  0  0  0  0  0  0
  -11.3691  -20.8845   23.7912 H   0  0  0  0  0  0  0  0  0  0  0  0
  -11.9114  -21.4639   26.2355 H   0  0  0  0  0  0  0  0  0  0  0  0
  -13.1069  -23.4461   26.7890 H   0  0  0  0  0  0  0  0  0  0  0  0
  -14.6782  -24.2954   24.9766 H   0  0  0  0  0  0  0  0  0  0  0  0
  -11.0918  -24.7341   20.9455 H   0  0  0  0  0  0  0  0  0  0  0  0
  -13.3271  -25.3617   14.7097 H   0  0  0  0  0  0  0  0  0  0  0  0
  -12.8335  -26.8668   12.8763 H   0  0  0  0  0  0  0  0  0  0  0  0
  -11.6184  -27.7384   13.8406 H   0  0  0  0  0  0  0  0  0  0  0  0
  -11.4811  -24.8491   12.8963 H   0  0  0  0  0  0  0  0  0  0  0  0
  -10.2643  -26.1131   12.6276 H   0  0  0  0  0  0  0  0  0  0  0  0
   -9.6566  -26.1311   14.9598 H   0  0  0  0  0  0  0  0  0  0  0  0
  -10.0838  -24.4122   14.7647 H   0  0  0  0  0  0  0  0  0  0  0  0
  1  2  1  0
  2  3  1  0
  3  4  1  0
  4  5  2  0
  4  6  1  0
  6  7  1  0
  7  8  1  0
  8  9  2  0
  9 10  1  0
 10 11  1  0
 11 12  2  0
 12 13  1  0
 13 14  2  0
 14 15  1  0
 15 16  2  0
 10 17  1  0
  2 18  1  0
 18 19  1  0
 19 20  1  0
 20 21  1  0
 21 22  1  0
 17  7  2  0
 22 18  1  0
 16 11  1  0
  1 23  1  0
  1 24  1  0
  1 25  1  0
  2 26  1  0
  3 27  1  0
  3 28  1  0
  6 29  1  0
  8 30  1  0
 12 31  1  0
 13 32  1  0
 14 33  1  0
 15 34  1  0
 17 35  1  0
 18 36  1  0
 19 37  1  0
 19 38  1  0
 20 39  1  0
 20 40  1  0
 21 41  1  0
 21 42  1  0
M  END
>  <Energy>  (468) 
222.62946014260112

>  <compound_id>  (468) 
5494

>  <target_id>  (468) 
1

>  <reference_id>  (468) 
28

>  <inspiration_ids>  (468) 
[96, 28]

>  <energy_score>  (468) 
119.85069553527183

>  <distance_score>  (468) 
6.673420004664755

>  <path>  (468) 
/opt/xchem-fragalysis-2/maxwin/BulkDock/SCRATCH/511018/C5494-P28/C5494-P28.minimised.mol

>  <scratch_subdir>  (468) 
/opt/xchem-fragalysis-2/maxwin/BulkDock/SCRATCH/511018/C5494-P28

>  <fragmenstein_runtime>  (468) 
47.89919328689575

>  <fragmenstein_outcome>  (468) 
too moved

>  <fragmenstein_mode>  (468) 
expansion

>  <fragmenstein_error>  (468) 


$$$$
C5496-P96
     RDKit          3D

 49 51  0  0  0  0  0  0  0  0999 V2000
  -14.2541  -27.2366   17.8825 C   0  0  0  0  0  0  0  0  0  0  0  0
  -14.4107  -25.9902   17.0310 C   0  0  0  0  0  0  0  0  0  0  0  0
  -13.5848  -26.1426   15.7206 C   0  0  0  0  0  0  0  0  0  0  0  0
  -13.8082  -27.2411   14.6822 C   0  0  0  0  0  0  0  0  0  0  0  0
  -12.8172  -27.0999   13.4973 C   0  0  0  0  0  0  0  0  0  0  0  0
  -11.3600  -27.4329   13.8126 C   0  0  0  0  0  0  0  0  0  0  0  0
  -10.6046  -26.5533   12.8463 C   0  0  0  0  0  0  0  0  0  0  0  0
  -11.4596  -25.3105   12.8268 C   0  0  0  0  0  0  0  0  0  0  0  0
  -12.8204  -25.7529   12.9786 O   0  0  0  0  0  0  0  0  0  0  0  0
  -14.0668  -24.6718   17.6898 N   0  0  0  0  0  0  0  0  0  0  0  0
  -13.4740  -24.3768   18.9700 C   0  0  0  0  0  0  0  0  0  0  0  0
  -13.1747  -25.1037   19.8756 O   0  0  0  0  0  0  0  0  0  0  0  0
  -13.1013  -22.6611   19.3821 C   0  0  0  0  0  0  0  0  0  0  0  0
  -13.5871  -21.4008   18.9086 C   0  0  0  0  0  0  0  0  0  0  0  0
  -13.2431  -20.4233   19.8182 C   0  0  0  0  0  0  0  0  0  0  0  0
  -12.6307  -21.0835   20.8436 N   0  0  0  0  0  0  0  0  0  0  0  0
  -12.4089  -20.4972   22.1553 C   0  0  0  0  0  0  0  0  0  0  0  0
  -13.7506  -20.2302   22.8548 C   0  0  0  0  0  0  0  0  0  0  0  0
  -13.5261  -20.6245   24.2904 C   0  0  0  0  0  0  0  0  0  0  0  0
  -12.5555  -21.7833   24.2072 C   0  0  0  0  0  0  0  0  0  0  0  0
  -11.5661  -21.2817   23.1686 C   0  0  0  0  0  0  0  0  0  0  0  0
  -12.4687  -22.3942   20.5936 N   0  0  0  0  0  0  0  0  0  0  0  0
  -14.3548  -28.1482   17.2857 H   0  0  0  0  0  0  0  0  0  0  0  0
  -15.0499  -27.2917   18.6236 H   0  0  0  0  0  0  0  0  0  0  0  0
  -13.2818  -27.2714   18.3808 H   0  0  0  0  0  0  0  0  0  0  0  0
  -15.4643  -25.8891   16.7446 H   0  0  0  0  0  0  0  0  0  0  0  0
  -13.7389  -25.2104   15.1669 H   0  0  0  0  0  0  0  0  0  0  0  0
  -12.5437  -26.2502   16.0384 H   0  0  0  0  0  0  0  0  0  0  0  0
  -13.7082  -28.2368   15.1250 H   0  0  0  0  0  0  0  0  0  0  0  0
  -14.8322  -27.1460   14.3023 H   0  0  0  0  0  0  0  0  0  0  0  0
  -13.1614  -27.7483   12.6821 H   0  0  0  0  0  0  0  0  0  0  0  0
  -11.1414  -28.4970   13.6829 H   0  0  0  0  0  0  0  0  0  0  0  0
  -11.0832  -27.1648   14.8365 H   0  0  0  0  0  0  0  0  0  0  0  0
   -9.5713  -26.3587   13.1447 H   0  0  0  0  0  0  0  0  0  0  0  0
  -10.5959  -27.0189   11.8538 H   0  0  0  0  0  0  0  0  0  0  0  0
  -11.2210  -24.6512   13.6663 H   0  0  0  0  0  0  0  0  0  0  0  0
  -11.3536  -24.7472   11.8964 H   0  0  0  0  0  0  0  0  0  0  0  0
  -14.1004  -23.8492   17.1575 H   0  0  0  0  0  0  0  0  0  0  0  0
  -14.0121  -21.2062   17.9647 H   0  0  0  0  0  0  0  0  0  0  0  0
  -13.3950  -19.3536   19.8275 H   0  0  0  0  0  0  0  0  0  0  0  0
  -11.9231  -19.5348   21.9624 H   0  0  0  0  0  0  0  0  0  0  0  0
  -14.0473  -19.1789   22.7699 H   0  0  0  0  0  0  0  0  0  0  0  0
  -14.5677  -20.8249   22.4363 H   0  0  0  0  0  0  0  0  0  0  0  0
  -14.4643  -20.8863   24.7862 H   0  0  0  0  0  0  0  0  0  0  0  0
  -13.0555  -19.7729   24.7914 H   0  0  0  0  0  0  0  0  0  0  0  0
  -13.0773  -22.6755   23.8474 H   0  0  0  0  0  0  0  0  0  0  0  0
  -12.0845  -22.0191   25.1635 H   0  0  0  0  0  0  0  0  0  0  0  0
  -10.9678  -22.0730   22.7309 H   0  0  0  0  0  0  0  0  0  0  0  0
  -10.8744  -20.5758   23.6410 H   0  0  0  0  0  0  0  0  0  0  0  0
  1  2  1  0
  2  3  1  0
  3  4  1  0
  4  5  1  0
  5  6  1  0
  6  7  1  0
  7  8  1  0
  8  9  1  0
  2 10  1  0
 10 11  1  0
 11 12  2  0
 11 13  1  0
 13 14  1  0
 14 15  2  0
 15 16  1  0
 16 17  1  0
 17 18  1  0
 18 19  1  0
 19 20  1  0
 20 21  1  0
 16 22  1  0
  9  5  1  0
 22 13  2  0
 21 17  1  0
  1 23  1  0
  1 24  1  0
  1 25  1  0
  2 26  1  0
  3 27  1  0
  3 28  1  0
  4 29  1  0
  4 30  1  0
  5 31  1  0
  6 32  1  0
  6 33  1  0
  7 34  1  0
  7 35  1  0
  8 36  1  0
  8 37  1  0
 10 38  1  0
 14 39  1  0
 15 40  1  0
 17 41  1  0
 18 42  1  0
 18 43  1  0
 19 44  1  0
 19 45  1  0
 20 46  1  0
 20 47  1  0
 21 48  1  0
 21 49  1  0
M  END
>  <Energy>  (469) 
103.68077834262428

>  <compound_id>  (469) 
5496

>  <target_id>  (469) 
1

>  <reference_id>  (469) 
96

>  <inspiration_ids>  (469) 
[96, 28]

>  <energy_score>  (469) 
13.507088411975133

>  <distance_score>  (469) 
8.230664035356344

>  <path>  (469) 
/opt/xchem-fragalysis-2/maxwin/BulkDock/SCRATCH/511018/C5496-P96/C5496-P96.minimised.mol

>  <scratch_subdir>  (469) 
/opt/xchem-fragalysis-2/maxwin/BulkDock/SCRATCH/511018/C5496-P96

>  <fragmenstein_runtime>  (469) 
40.50358057022095

>  <fragmenstein_outcome>  (469) 
too moved

>  <fragmenstein_mode>  (469) 
expansion

>  <fragmenstein_error>  (469) 


$$$$
C5496-P28
     RDKit          3D

 49 51  0  0  0  0  0  0  0  0999 V2000
  -15.7024  -24.7231   18.6511 C   0  0  0  0  0  0  0  0  0  0  0  0
  -14.1766  -24.6231   18.3858 C   0  0  0  0  0  0  0  0  0  0  0  0
  -13.7742  -26.1306   18.0394 C   0  0  0  0  0  0  0  0  0  0  0  0
  -12.6044  -26.5612   17.1148 C   0  0  0  0  0  0  0  0  0  0  0  0
  -12.6483  -26.1015   15.6552 C   0  0  0  0  0  0  0  0  0  0  0  0
  -12.7337  -27.2024   14.6114 C   0  0  0  0  0  0  0  0  0  0  0  0
  -12.1874  -26.5006   13.3870 C   0  0  0  0  0  0  0  0  0  0  0  0
  -11.0764  -25.6561   13.9689 C   0  0  0  0  0  0  0  0  0  0  0  0
  -11.4019  -25.4523   15.3485 O   0  0  0  0  0  0  0  0  0  0  0  0
  -13.4718  -23.9519   19.5769 N   0  0  0  0  0  0  0  0  0  0  0  0
  -13.5063  -22.5233   20.0694 C   0  0  0  0  0  0  0  0  0  0  0  0
  -14.0267  -21.5514   19.6048 O   0  0  0  0  0  0  0  0  0  0  0  0
  -12.9084  -22.2222   21.3890 C   0  0  0  0  0  0  0  0  0  0  0  0
  -11.6971  -21.6509   21.7918 C   0  0  0  0  0  0  0  0  0  0  0  0
  -11.8706  -21.3141   23.1295 C   0  0  0  0  0  0  0  0  0  0  0  0
  -13.0951  -21.7697   23.4804 N   0  0  0  0  0  0  0  0  0  0  0  0
  -13.8175  -21.9400   24.7245 C   0  0  0  0  0  0  0  0  0  0  0  0
  -13.7305  -23.3807   25.1976 C   0  0  0  0  0  0  0  0  0  0  0  0
  -12.6667  -23.3895   26.2965 C   0  0  0  0  0  0  0  0  0  0  0  0
  -12.5489  -21.9528   26.7924 C   0  0  0  0  0  0  0  0  0  0  0  0
  -13.4517  -21.0973   25.9225 C   0  0  0  0  0  0  0  0  0  0  0  0
  -13.7620  -22.2017   22.4269 N   0  0  0  0  0  0  0  0  0  0  0  0
  -16.1095  -23.8661   19.1947 H   0  0  0  0  0  0  0  0  0  0  0  0
  -16.2423  -24.8121   17.7006 H   0  0  0  0  0  0  0  0  0  0  0  0
  -15.9510  -25.6196   19.2286 H   0  0  0  0  0  0  0  0  0  0  0  0
  -13.9886  -24.0337   17.4973 H   0  0  0  0  0  0  0  0  0  0  0  0
  -13.6435  -26.6544   18.9941 H   0  0  0  0  0  0  0  0  0  0  0  0
  -14.6523  -26.5998   17.5709 H   0  0  0  0  0  0  0  0  0  0  0  0
  -11.6508  -26.3127   17.5784 H   0  0  0  0  0  0  0  0  0  0  0  0
  -12.6211  -27.6604   17.1229 H   0  0  0  0  0  0  0  0  0  0  0  0
  -13.4631  -25.3870   15.4929 H   0  0  0  0  0  0  0  0  0  0  0  0
  -13.7504  -27.5806   14.4753 H   0  0  0  0  0  0  0  0  0  0  0  0
  -12.0801  -28.0442   14.8704 H   0  0  0  0  0  0  0  0  0  0  0  0
  -11.8401  -27.1841   12.6077 H   0  0  0  0  0  0  0  0  0  0  0  0
  -12.9595  -25.8550   12.9518 H   0  0  0  0  0  0  0  0  0  0  0  0
  -10.1133  -26.1747   13.9261 H   0  0  0  0  0  0  0  0  0  0  0  0
  -10.9768  -24.6902   13.4656 H   0  0  0  0  0  0  0  0  0  0  0  0
  -12.8661  -24.4989   20.1778 H   0  0  0  0  0  0  0  0  0  0  0  0
  -10.8328  -21.4607   21.1777 H   0  0  0  0  0  0  0  0  0  0  0  0
  -11.2243  -20.7966   23.8115 H   0  0  0  0  0  0  0  0  0  0  0  0
  -14.8631  -21.7058   24.4746 H   0  0  0  0  0  0  0  0  0  0  0  0
  -13.5683  -24.0831   24.3949 H   0  0  0  0  0  0  0  0  0  0  0  0
  -14.7070  -23.7488   25.5075 H   0  0  0  0  0  0  0  0  0  0  0  0
  -12.9154  -24.1052   27.0796 H   0  0  0  0  0  0  0  0  0  0  0  0
  -11.6886  -23.7011   25.9255 H   0  0  0  0  0  0  0  0  0  0  0  0
  -11.5219  -21.6411   26.7416 H   0  0  0  0  0  0  0  0  0  0  0  0
  -12.7548  -21.7953   27.8468 H   0  0  0  0  0  0  0  0  0  0  0  0
  -13.0368  -20.1459   25.6024 H   0  0  0  0  0  0  0  0  0  0  0  0
  -14.3586  -20.8576   26.4916 H   0  0  0  0  0  0  0  0  0  0  0  0
  1  2  1  0
  2  3  1  0
  3  4  1  0
  4  5  1  0
  5  6  1  0
  6  7  1  0
  7  8  1  0
  8  9  1  0
  2 10  1  0
 10 11  1  0
 11 12  2  0
 11 13  1  0
 13 14  1  0
 14 15  2  0
 15 16  1  0
 16 17  1  0
 17 18  1  0
 18 19  1  0
 19 20  1  0
 20 21  1  0
 16 22  1  0
  9  5  1  0
 22 13  2  0
 21 17  1  0
  1 23  1  0
  1 24  1  0
  1 25  1  0
  2 26  1  0
  3 27  1  0
  3 28  1  0
  4 29  1  0
  4 30  1  0
  5 31  1  0
  6 32  1  0
  6 33  1  0
  7 34  1  0
  7 35  1  0
  8 36  1  0
  8 37  1  0
 10 38  1  0
 14 39  1  0
 15 40  1  0
 17 41  1  0
 18 42  1  0
 18 43  1  0
 19 44  1  0
 19 45  1  0
 20 46  1  0
 20 47  1  0
 21 48  1  0
 21 49  1  0
M  END
>  <Energy>  (470) 
104.48512662911472

>  <compound_id>  (470) 
5496

>  <target_id>  (470) 
1

>  <reference_id>  (470) 
28

>  <inspiration_ids>  (470) 
[96, 28]

>  <energy_score>  (470) 
14.311436698460284

>  <distance_score>  (470) 
8.214887652123673

>  <path>  (470) 
/opt/xchem-fragalysis-2/maxwin/BulkDock/SCRATCH/511018/C5496-P28/C5496-P28.minimised.mol

>  <scratch_subdir>  (470) 
/opt/xchem-fragalysis-2/maxwin/BulkDock/SCRATCH/511018/C5496-P28

>  <fragmenstein_runtime>  (470) 
33.95430660247803

>  <fragmenstein_outcome>  (470) 
too moved

>  <fragmenstein_mode>  (470) 
expansion

>  <fragmenstein_error>  (470) 


$$$$
C5497-P96
     RDKit          3D

 53 55  0  0  0  0  0  0  0  0999 V2000
   -9.5900  -30.4147   14.1905 C   0  0  0  0  0  0  0  0  0  0  0  0
   -9.5623  -29.1819   15.0813 C   0  0  0  0  0  0  0  0  0  0  0  0
  -10.9397  -28.8784   15.7648 C   0  0  0  0  0  0  0  0  0  0  0  0
  -12.0894  -28.5614   14.7823 C   0  0  0  0  0  0  0  0  0  0  0  0
  -11.8710  -27.3784   13.9912 N   0  0  0  0  0  0  0  0  0  0  0  0
  -11.3083  -27.2127   12.6796 C   0  0  0  0  0  0  0  0  0  0  0  0
  -10.8045  -28.0066   11.9400 O   0  0  0  0  0  0  0  0  0  0  0  0
  -11.5462  -25.7438   12.2397 C   0  0  0  0  0  0  0  0  0  0  0  0
  -10.4989  -25.2069   11.2824 C   0  0  0  0  0  0  0  0  0  0  0  0
   -9.5133  -24.5799   12.2302 C   0  0  0  0  0  0  0  0  0  0  0  0
  -10.4029  -24.0174   13.3116 C   0  0  0  0  0  0  0  0  0  0  0  0
  -11.5540  -24.8758   13.3860 O   0  0  0  0  0  0  0  0  0  0  0  0
  -10.9282  -27.8600   16.9539 N   0  0  0  0  0  0  0  0  0  0  0  0
  -11.4418  -27.5957   17.8788 C   0  0  0  0  0  0  0  0  0  0  0  0
  -12.6921  -28.6053   17.8800 O   0  0  0  0  0  0  0  0  0  0  0  0
  -11.0960  -26.6881   18.9404 C   0  0  0  0  0  0  0  0  0  0  0  0
  -12.3283  -25.4427   19.8324 C   0  0  0  0  0  0  0  0  0  0  0  0
  -11.1248  -25.0095   20.8938 C   0  0  0  0  0  0  0  0  0  0  0  0
  -10.3385  -26.4729   21.9532 N   0  0  0  0  0  0  0  0  0  0  0  0
  -10.9690  -27.0271   23.8876 C   0  0  0  0  0  0  0  0  0  0  0  0
  -10.3502  -25.9139   25.4849 C   0  0  0  0  0  0  0  0  0  0  0  0
  -11.3339  -25.7234   26.6545 C   0  0  0  0  0  0  0  0  0  0  0  0
  -12.6950  -25.8280   26.0642 C   0  0  0  0  0  0  0  0  0  0  0  0
  -12.6585  -26.9543   25.0074 C   0  0  0  0  0  0  0  0  0  0  0  0
   -9.9014  -27.0279   20.3077 N   0  0  0  0  0  0  0  0  0  0  0  0
   -9.9188  -31.2951   14.7515 H   0  0  0  0  0  0  0  0  0  0  0  0
   -8.5871  -30.6180   13.8015 H   0  0  0  0  0  0  0  0  0  0  0  0
  -10.2565  -30.2839   13.3344 H   0  0  0  0  0  0  0  0  0  0  0  0
   -8.8096  -29.3471   15.8627 H   0  0  0  0  0  0  0  0  0  0  0  0
   -9.2225  -28.3142   14.5031 H   0  0  0  0  0  0  0  0  0  0  0  0
  -11.2332  -29.8160   16.2612 H   0  0  0  0  0  0  0  0  0  0  0  0
  -13.0303  -28.4089   15.3200 H   0  0  0  0  0  0  0  0  0  0  0  0
  -12.2362  -29.3982   14.0923 H   0  0  0  0  0  0  0  0  0  0  0  0
  -12.1354  -26.4621   14.3578 H   0  0  0  0  0  0  0  0  0  0  0  0
  -12.5411  -25.7253   11.7816 H   0  0  0  0  0  0  0  0  0  0  0  0
  -10.0457  -25.9585   10.6308 H   0  0  0  0  0  0  0  0  0  0  0  0
  -10.9373  -24.4295   10.6464 H   0  0  0  0  0  0  0  0  0  0  0  0
   -8.8849  -23.8139   11.7788 H   0  0  0  0  0  0  0  0  0  0  0  0
   -8.8694  -25.3675   12.6339 H   0  0  0  0  0  0  0  0  0  0  0  0
   -9.9111  -23.9793   14.2867 H   0  0  0  0  0  0  0  0  0  0  0  0
  -10.7459  -23.0112   13.0541 H   0  0  0  0  0  0  0  0  0  0  0  0
  -10.1896  -27.8255   16.3046 H   0  0  0  0  0  0  0  0  0  0  0  0
  -13.1775  -24.9839   19.3410 H   0  0  0  0  0  0  0  0  0  0  0  0
  -10.1996  -24.6539   20.5110 H   0  0  0  0  0  0  0  0  0  0  0  0
  -11.2062  -26.0444   24.1115 H   0  0  0  0  0  0  0  0  0  0  0  0
  -10.1727  -24.8616   25.1876 H   0  0  0  0  0  0  0  0  0  0  0  0
   -9.3980  -26.2656   25.8941 H   0  0  0  0  0  0  0  0  0  0  0  0
  -11.1852  -24.7448   27.1266 H   0  0  0  0  0  0  0  0  0  0  0  0
  -11.1823  -26.4541   27.4550 H   0  0  0  0  0  0  0  0  0  0  0  0
  -13.0137  -24.8793   25.6220 H   0  0  0  0  0  0  0  0  0  0  0  0
  -13.4363  -26.0588   26.8381 H   0  0  0  0  0  0  0  0  0  0  0  0
  -12.8358  -27.8774   25.5569 H   0  0  0  0  0  0  0  0  0  0  0  0
  -13.6511  -26.8462   24.5083 H   0  0  0  0  0  0  0  0  0  0  0  0
  1  2  1  0
  2  3  1  0
  3  4  1  0
  4  5  1  0
  5  6  1  0
  6  7  2  0
  6  8  1  0
  8  9  1  0
  9 10  1  0
 10 11  1  0
 11 12  1  0
  3 13  1  0
 13 14  1  0
 14 15  2  0
 14 16  1  0
 16 17  1  0
 17 18  2  0
 18 19  1  0
 19 20  1  0
 20 21  1  0
 21 22  1  0
 22 23  1  0
 23 24  1  0
 19 25  1  0
 12  8  1  0
 25 16  2  0
 24 20  1  0
  1 26  1  0
  1 27  1  0
  1 28  1  0
  2 29  1  0
  2 30  1  0
  3 31  1  0
  4 32  1  0
  4 33  1  0
  5 34  1  0
  8 35  1  0
  9 36  1  0
  9 37  1  0
 10 38  1  0
 10 39  1  0
 11 40  1  0
 11 41  1  0
 13 42  1  0
 17 43  1  0
 18 44  1  0
 20 45  1  0
 21 46  1  0
 21 47  1  0
 22 48  1  0
 22 49  1  0
 23 50  1  0
 23 51  1  0
 24 52  1  0
 24 53  1  0
M  END
>  <Energy>  (471) 
1073.9113419971952

>  <compound_id>  (471) 
5497

>  <target_id>  (471) 
1

>  <reference_id>  (471) 
96

>  <inspiration_ids>  (471) 
[96, 28]

>  <energy_score>  (471) 
962.2532168969738

>  <distance_score>  (471) 
5.825720553757643

>  <path>  (471) 
/opt/xchem-fragalysis-2/maxwin/BulkDock/SCRATCH/511018/C5497-P96/C5497-P96.minimised.mol

>  <scratch_subdir>  (471) 
/opt/xchem-fragalysis-2/maxwin/BulkDock/SCRATCH/511018/C5497-P96

>  <fragmenstein_runtime>  (471) 
32.88330364227295

>  <fragmenstein_outcome>  (471) 
too moved

>  <fragmenstein_mode>  (471) 
expansion

>  <fragmenstein_error>  (471) 


$$$$
C5497-P28
     RDKit          3D

 53 55  0  0  0  0  0  0  0  0999 V2000
  -11.8366  -27.8768   16.9886 C   0  0  0  0  0  0  0  0  0  0  0  0
  -11.0867  -26.6005   17.4441 C   0  0  0  0  0  0  0  0  0  0  0  0
  -11.5459  -26.0378   19.0124 C   0  0  0  0  0  0  0  0  0  0  0  0
  -13.2259  -25.8212   18.9517 C   0  0  0  0  0  0  0  0  0  0  0  0
  -13.7465  -25.7022   17.5917 N   0  0  0  0  0  0  0  0  0  0  0  0
  -15.0509  -25.9500   17.0596 C   0  0  0  0  0  0  0  0  0  0  0  0
  -16.0746  -26.2429   17.6048 O   0  0  0  0  0  0  0  0  0  0  0  0
  -14.9368  -25.8843   15.4973 C   0  0  0  0  0  0  0  0  0  0  0  0
  -15.7804  -24.8093   14.8379 C   0  0  0  0  0  0  0  0  0  0  0  0
  -14.8684  -24.1451   13.8244 C   0  0  0  0  0  0  0  0  0  0  0  0
  -13.6714  -25.0564   13.7458 C   0  0  0  0  0  0  0  0  0  0  0  0
  -13.5849  -25.6599   15.0387 O   0  0  0  0  0  0  0  0  0  0  0  0
  -10.7420  -25.0923   20.6466 N   0  0  0  0  0  0  0  0  0  0  0  0
   -8.9084  -24.6164   21.1342 C   0  0  0  0  0  0  0  0  0  0  0  0
   -8.0020  -24.7889   20.3803 O   0  0  0  0  0  0  0  0  0  0  0  0
   -8.6243  -23.6095   23.0223 C   0  0  0  0  0  0  0  0  0  0  0  0
   -7.4579  -23.1600   23.7348 C   0  0  0  0  0  0  0  0  0  0  0  0
   -7.4209  -23.4707   25.1713 C   0  0  0  0  0  0  0  0  0  0  0  0
   -8.7770  -24.1300   26.1076 N   0  0  0  0  0  0  0  0  0  0  0  0
   -9.0317  -23.4194   27.8948 C   0  0  0  0  0  0  0  0  0  0  0  0
  -10.4499  -22.4006   28.7007 C   0  0  0  0  0  0  0  0  0  0  0  0
  -10.3035  -21.3782   30.4359 C   0  0  0  0  0  0  0  0  0  0  0  0
   -8.2287  -21.5769   31.4027 C   0  0  0  0  0  0  0  0  0  0  0  0
   -7.8309  -22.5948   29.2534 C   0  0  0  0  0  0  0  0  0  0  0  0
   -9.5932  -23.9303   24.4947 N   0  0  0  0  0  0  0  0  0  0  0  0
  -12.8090  -27.6731   16.5444 H   0  0  0  0  0  0  0  0  0  0  0  0
  -11.9913  -28.5844   17.8058 H   0  0  0  0  0  0  0  0  0  0  0  0
  -11.2519  -28.3826   16.2116 H   0  0  0  0  0  0  0  0  0  0  0  0
  -11.2596  -25.8409   16.6786 H   0  0  0  0  0  0  0  0  0  0  0  0
  -10.0507  -26.9096   17.3492 H   0  0  0  0  0  0  0  0  0  0  0  0
  -11.6429  -27.0832   19.2794 H   0  0  0  0  0  0  0  0  0  0  0  0
  -13.7530  -26.6564   19.4247 H   0  0  0  0  0  0  0  0  0  0  0  0
  -13.4534  -24.9175   19.4959 H   0  0  0  0  0  0  0  0  0  0  0  0
  -13.1356  -25.3964   16.8388 H   0  0  0  0  0  0  0  0  0  0  0  0
  -15.2279  -26.8763   15.1286 H   0  0  0  0  0  0  0  0  0  0  0  0
  -16.1762  -24.0861   15.5572 H   0  0  0  0  0  0  0  0  0  0  0  0
  -16.6476  -25.2633   14.3447 H   0  0  0  0  0  0  0  0  0  0  0  0
  -14.5649  -23.1654   14.1971 H   0  0  0  0  0  0  0  0  0  0  0  0
  -15.3445  -23.9902   12.8521 H   0  0  0  0  0  0  0  0  0  0  0  0
  -12.7441  -24.5243   13.5175 H   0  0  0  0  0  0  0  0  0  0  0  0
  -13.8178  -25.8480   13.0028 H   0  0  0  0  0  0  0  0  0  0  0  0
  -11.3409  -24.8083   21.3382 H   0  0  0  0  0  0  0  0  0  0  0  0
   -6.4684  -23.0711   23.2981 H   0  0  0  0  0  0  0  0  0  0  0  0
   -6.7980  -23.0053   25.9317 H   0  0  0  0  0  0  0  0  0  0  0  0
   -8.2855  -22.8461   27.3648 H   0  0  0  0  0  0  0  0  0  0  0  0
  -10.8498  -21.7113   27.9621 H   0  0  0  0  0  0  0  0  0  0  0  0
  -11.2541  -23.1099   28.8699 H   0  0  0  0  0  0  0  0  0  0  0  0
  -10.7169  -20.4848   30.0030 H   0  0  0  0  0  0  0  0  0  0  0  0
  -11.1716  -21.7255   31.0435 H   0  0  0  0  0  0  0  0  0  0  0  0
   -9.1238  -21.8951   32.3384 H   0  0  0  0  0  0  0  0  0  0  0  0
   -7.6505  -22.6523   30.0964 H   0  0  0  0  0  0  0  0  0  0  0  0
   -6.8297  -23.0897   28.9404 H   0  0  0  0  0  0  0  0  0  0  0  0
   -7.6417  -21.7873   28.3890 H   0  0  0  0  0  0  0  0  0  0  0  0
  1  2  1  0
  2  3  1  0
  3  4  1  0
  4  5  1  0
  5  6  1  0
  6  7  2  0
  6  8  1  0
  8  9  1  0
  9 10  1  0
 10 11  1  0
 11 12  1  0
  3 13  1  0
 13 14  1  0
 14 15  2  0
 14 16  1  0
 16 17  1  0
 17 18  2  0
 18 19  1  0
 19 20  1  0
 20 21  1  0
 21 22  1  0
 22 23  1  0
 23 24  1  0
 19 25  1  0
 12  8  1  0
 25 16  2  0
 24 20  1  0
  1 26  1  0
  1 27  1  0
  1 28  1  0
  2 29  1  0
  2 30  1  0
  3 31  1  0
  4 32  1  0
  4 33  1  0
  5 34  1  0
  8 35  1  0
  9 36  1  0
  9 37  1  0
 10 38  1  0
 10 39  1  0
 11 40  1  0
 11 41  1  0
 13 42  1  0
 17 43  1  0
 18 44  1  0
 20 45  1  0
 21 46  1  0
 21 47  1  0
 22 48  1  0
 22 49  1  0
 23 50  1  0
 23 51  1  0
 24 52  1  0
 24 53  1  0
M  END
>  <Energy>  (472) 
1818.7606367375893

>  <compound_id>  (472) 
5497

>  <target_id>  (472) 
1

>  <reference_id>  (472) 
28

>  <inspiration_ids>  (472) 
[96, 28]

>  <energy_score>  (472) 
1707.1025116373557

>  <distance_score>  (472) 
7.218456735320469

>  <path>  (472) 
/opt/xchem-fragalysis-2/maxwin/BulkDock/SCRATCH/511018/C5497-P28/C5497-P28.minimised.mol

>  <scratch_subdir>  (472) 
/opt/xchem-fragalysis-2/maxwin/BulkDock/SCRATCH/511018/C5497-P28

>  <fragmenstein_runtime>  (472) 
42.052162408828735

>  <fragmenstein_outcome>  (472) 
too moved

>  <fragmenstein_mode>  (472) 
expansion

>  <fragmenstein_error>  (472) 


$$$$
C5500-P96
     RDKit          3D

 45 47  0  0  0  0  0  0  0  0999 V2000
  -16.4785  -30.3860   19.3765 O   0  0  0  0  0  0  0  0  0  0  0  0
  -16.5731  -29.2600   19.0663 C   0  0  0  0  0  0  0  0  0  0  0  0
  -17.4377  -28.1937   19.6057 N   0  0  0  0  0  0  0  0  0  0  0  0
  -18.4879  -28.2390   20.6054 C   0  0  0  0  0  0  0  0  0  0  0  0
  -18.0066  -28.4275   22.0214 C   0  0  0  0  0  0  0  0  0  0  0  0
  -17.9855  -29.6635   22.7126 C   0  0  0  0  0  0  0  0  0  0  0  0
  -17.6287  -29.3635   24.0087 C   0  0  0  0  0  0  0  0  0  0  0  0
  -17.4143  -28.0086   24.0563 N   0  0  0  0  0  0  0  0  0  0  0  0
  -17.0511  -27.2669   25.2594 C   0  0  0  0  0  0  0  0  0  0  0  0
  -17.4216  -25.7866   25.2842 C   0  0  0  0  0  0  0  0  0  0  0  0
  -16.6105  -25.2044   26.4359 C   0  0  0  0  0  0  0  0  0  0  0  0
  -15.4378  -26.1521   26.6810 C   0  0  0  0  0  0  0  0  0  0  0  0
  -15.5560  -27.2296   25.6075 C   0  0  0  0  0  0  0  0  0  0  0  0
  -17.6872  -27.4128   22.8595 N   0  0  0  0  0  0  0  0  0  0  0  0
  -15.8113  -28.4725   18.0419 N   0  0  0  0  0  0  0  0  0  0  0  0
  -14.8088  -28.8928   17.0752 C   0  0  0  0  0  0  0  0  0  0  0  0
  -13.8066  -27.7878   16.6719 C   0  0  0  0  0  0  0  0  0  0  0  0
  -12.6847  -28.3090   15.7756 C   0  0  0  0  0  0  0  0  0  0  0  0
  -12.3428  -27.1084   14.9295 C   0  0  0  0  0  0  0  0  0  0  0  0
  -13.7070  -26.4902   14.7230 C   0  0  0  0  0  0  0  0  0  0  0  0
  -14.4608  -26.7385   15.9230 O   0  0  0  0  0  0  0  0  0  0  0  0
  -17.3249  -27.3692   19.0558 H   0  0  0  0  0  0  0  0  0  0  0  0
  -19.0548  -27.3053   20.5265 H   0  0  0  0  0  0  0  0  0  0  0  0
  -19.1556  -29.0636   20.3322 H   0  0  0  0  0  0  0  0  0  0  0  0
  -18.2250  -30.6406   22.3145 H   0  0  0  0  0  0  0  0  0  0  0  0
  -17.5053  -29.9893   24.8811 H   0  0  0  0  0  0  0  0  0  0  0  0
  -17.5872  -27.7632   26.0815 H   0  0  0  0  0  0  0  0  0  0  0  0
  -18.4970  -25.6367   25.4288 H   0  0  0  0  0  0  0  0  0  0  0  0
  -17.1551  -25.2859   24.3497 H   0  0  0  0  0  0  0  0  0  0  0  0
  -16.2742  -24.1899   26.2006 H   0  0  0  0  0  0  0  0  0  0  0  0
  -17.2445  -25.1539   27.3274 H   0  0  0  0  0  0  0  0  0  0  0  0
  -15.5217  -26.5981   27.6786 H   0  0  0  0  0  0  0  0  0  0  0  0
  -14.4741  -25.6359   26.6288 H   0  0  0  0  0  0  0  0  0  0  0  0
  -15.1909  -28.1969   25.9644 H   0  0  0  0  0  0  0  0  0  0  0  0
  -14.9596  -26.9387   24.7365 H   0  0  0  0  0  0  0  0  0  0  0  0
  -16.0889  -27.5095   18.0884 H   0  0  0  0  0  0  0  0  0  0  0  0
  -14.2863  -29.7552   17.5019 H   0  0  0  0  0  0  0  0  0  0  0  0
  -15.3678  -29.2322   16.1964 H   0  0  0  0  0  0  0  0  0  0  0  0
  -13.3861  -27.3190   17.5701 H   0  0  0  0  0  0  0  0  0  0  0  0
  -11.8348  -28.6914   16.3485 H   0  0  0  0  0  0  0  0  0  0  0  0
  -13.0479  -29.1193   15.1315 H   0  0  0  0  0  0  0  0  0  0  0  0
  -11.8433  -27.3618   13.9909 H   0  0  0  0  0  0  0  0  0  0  0  0
  -11.6875  -26.4411   15.4968 H   0  0  0  0  0  0  0  0  0  0  0  0
  -14.2364  -26.9774   13.8966 H   0  0  0  0  0  0  0  0  0  0  0  0
  -13.6717  -25.4177   14.5190 H   0  0  0  0  0  0  0  0  0  0  0  0
  1  2  2  0
  2  3  1  0
  3  4  1  0
  4  5  1  0
  5  6  1  0
  6  7  2  0
  7  8  1  0
  8  9  1  0
  9 10  1  0
 10 11  1  0
 11 12  1  0
 12 13  1  0
  8 14  1  0
  2 15  1  0
 15 16  1  0
 16 17  1  0
 17 18  1  0
 18 19  1  0
 19 20  1  0
 20 21  1  0
 14  5  2  0
 21 17  1  0
 13  9  1  0
  3 22  1  0
  4 23  1  0
  4 24  1  0
  6 25  1  0
  7 26  1  0
  9 27  1  0
 10 28  1  0
 10 29  1  0
 11 30  1  0
 11 31  1  0
 12 32  1  0
 12 33  1  0
 13 34  1  0
 13 35  1  0
 15 36  1  0
 16 37  1  0
 16 38  1  0
 17 39  1  0
 18 40  1  0
 18 41  1  0
 19 42  1  0
 19 43  1  0
 20 44  1  0
 20 45  1  0
M  END
>  <Energy>  (473) 
-22.617979648666655

>  <compound_id>  (473) 
5500

>  <target_id>  (473) 
1

>  <reference_id>  (473) 
96

>  <inspiration_ids>  (473) 
[96, 28]

>  <energy_score>  (473) 
-13.018410027905873

>  <distance_score>  (473) 
9.568317706953689

>  <path>  (473) 
/opt/xchem-fragalysis-2/maxwin/BulkDock/SCRATCH/511018/C5500-P96/C5500-P96.minimised.mol

>  <scratch_subdir>  (473) 
/opt/xchem-fragalysis-2/maxwin/BulkDock/SCRATCH/511018/C5500-P96

>  <fragmenstein_runtime>  (473) 
34.32557249069214

>  <fragmenstein_outcome>  (473) 
too moved

>  <fragmenstein_mode>  (473) 
expansion

>  <fragmenstein_error>  (473) 


$$$$
C5500-P28
     RDKit          3D

 45 47  0  0  0  0  0  0  0  0999 V2000
  -18.6609  -28.2307   19.9767 O   0  0  0  0  0  0  0  0  0  0  0  0
  -17.6332  -27.7685   20.2933 C   0  0  0  0  0  0  0  0  0  0  0  0
  -17.1764  -27.2645   21.6177 N   0  0  0  0  0  0  0  0  0  0  0  0
  -17.8922  -27.1089   22.8670 C   0  0  0  0  0  0  0  0  0  0  0  0
  -16.9839  -26.8084   24.0271 C   0  0  0  0  0  0  0  0  0  0  0  0
  -16.7980  -27.5881   25.1901 C   0  0  0  0  0  0  0  0  0  0  0  0
  -15.8567  -26.9242   25.9508 C   0  0  0  0  0  0  0  0  0  0  0  0
  -15.5056  -25.8066   25.2419 N   0  0  0  0  0  0  0  0  0  0  0  0
  -14.2483  -25.0709   25.3261 C   0  0  0  0  0  0  0  0  0  0  0  0
  -13.4030  -25.2050   26.5892 C   0  0  0  0  0  0  0  0  0  0  0  0
  -12.4344  -24.0138   26.5775 C   0  0  0  0  0  0  0  0  0  0  0  0
  -13.0662  -22.9279   25.7206 C   0  0  0  0  0  0  0  0  0  0  0  0
  -14.2356  -23.5704   24.9728 C   0  0  0  0  0  0  0  0  0  0  0  0
  -16.2574  -25.6843   24.1173 N   0  0  0  0  0  0  0  0  0  0  0  0
  -16.4127  -27.4757   19.4720 N   0  0  0  0  0  0  0  0  0  0  0  0
  -16.1843  -27.5888   18.0356 C   0  0  0  0  0  0  0  0  0  0  0  0
  -14.7125  -27.7108   17.5980 C   0  0  0  0  0  0  0  0  0  0  0  0
  -14.5584  -28.0962   16.1315 C   0  0  0  0  0  0  0  0  0  0  0  0
  -13.1594  -27.6344   15.8285 C   0  0  0  0  0  0  0  0  0  0  0  0
  -13.1044  -26.3441   16.6022 C   0  0  0  0  0  0  0  0  0  0  0  0
  -14.0042  -26.4595   17.7217 O   0  0  0  0  0  0  0  0  0  0  0  0
  -16.2724  -26.8617   21.5227 H   0  0  0  0  0  0  0  0  0  0  0  0
  -18.6086  -26.2920   22.7308 H   0  0  0  0  0  0  0  0  0  0  0  0
  -18.4682  -28.0239   23.0370 H   0  0  0  0  0  0  0  0  0  0  0  0
  -17.2668  -28.5327   25.4304 H   0  0  0  0  0  0  0  0  0  0  0  0
  -15.3724  -27.1978   26.8771 H   0  0  0  0  0  0  0  0  0  0  0  0
  -13.6983  -25.5686   24.5418 H   0  0  0  0  0  0  0  0  0  0  0  0
  -12.8517  -26.1529   26.5828 H   0  0  0  0  0  0  0  0  0  0  0  0
  -14.0230  -25.2186   27.4871 H   0  0  0  0  0  0  0  0  0  0  0  0
  -11.4639  -24.3219   26.1746 H   0  0  0  0  0  0  0  0  0  0  0  0
  -12.2153  -23.6179   27.5700 H   0  0  0  0  0  0  0  0  0  0  0  0
  -12.3494  -22.5251   25.0012 H   0  0  0  0  0  0  0  0  0  0  0  0
  -13.3855  -22.0665   26.3152 H   0  0  0  0  0  0  0  0  0  0  0  0
  -15.1962  -23.0764   25.1477 H   0  0  0  0  0  0  0  0  0  0  0  0
  -14.0439  -23.3982   23.9134 H   0  0  0  0  0  0  0  0  0  0  0  0
  -15.7361  -27.0031   20.0390 H   0  0  0  0  0  0  0  0  0  0  0  0
  -16.6410  -26.6999   17.5889 H   0  0  0  0  0  0  0  0  0  0  0  0
  -16.7535  -28.4621   17.7021 H   0  0  0  0  0  0  0  0  0  0  0  0
  -14.1932  -28.4369   18.2364 H   0  0  0  0  0  0  0  0  0  0  0  0
  -14.7083  -29.1583   15.9587 H   0  0  0  0  0  0  0  0  0  0  0  0
  -15.2654  -27.5434   15.5124 H   0  0  0  0  0  0  0  0  0  0  0  0
  -12.9481  -27.4979   14.7677 H   0  0  0  0  0  0  0  0  0  0  0  0
  -12.4409  -28.3476   16.2281 H   0  0  0  0  0  0  0  0  0  0  0  0
  -12.0892  -26.1293   16.9559 H   0  0  0  0  0  0  0  0  0  0  0  0
  -13.4618  -25.5135   15.9846 H   0  0  0  0  0  0  0  0  0  0  0  0
  1  2  2  0
  2  3  1  0
  3  4  1  0
  4  5  1  0
  5  6  1  0
  6  7  2  0
  7  8  1  0
  8  9  1  0
  9 10  1  0
 10 11  1  0
 11 12  1  0
 12 13  1  0
  8 14  1  0
  2 15  1  0
 15 16  1  0
 16 17  1  0
 17 18  1  0
 18 19  1  0
 19 20  1  0
 20 21  1  0
 14  5  2  0
 21 17  1  0
 13  9  1  0
  3 22  1  0
  4 23  1  0
  4 24  1  0
  6 25  1  0
  7 26  1  0
  9 27  1  0
 10 28  1  0
 10 29  1  0
 11 30  1  0
 11 31  1  0
 12 32  1  0
 12 33  1  0
 13 34  1  0
 13 35  1  0
 15 36  1  0
 16 37  1  0
 16 38  1  0
 17 39  1  0
 18 40  1  0
 18 41  1  0
 19 42  1  0
 19 43  1  0
 20 44  1  0
 20 45  1  0
M  END
>  <Energy>  (474) 
-17.413516043656458

>  <compound_id>  (474) 
5500

>  <target_id>  (474) 
1

>  <reference_id>  (474) 
28

>  <inspiration_ids>  (474) 
[96, 28]

>  <energy_score>  (474) 
-7.813946422893764

>  <distance_score>  (474) 
9.678902117286617

>  <path>  (474) 
/opt/xchem-fragalysis-2/maxwin/BulkDock/SCRATCH/511018/C5500-P28/C5500-P28.minimised.mol

>  <scratch_subdir>  (474) 
/opt/xchem-fragalysis-2/maxwin/BulkDock/SCRATCH/511018/C5500-P28

>  <fragmenstein_runtime>  (474) 
32.65157103538513

>  <fragmenstein_outcome>  (474) 
too moved

>  <fragmenstein_mode>  (474) 
expansion

>  <fragmenstein_error>  (474) 


$$$$
C5505-P96
     RDKit          3D

 51 53  0  0  0  0  0  0  0  0999 V2000
  -14.6415  -25.1363   16.9225 C   0  0  0  0  0  0  0  0  0  0  0  0
  -13.5530  -25.0512   17.9185 N   0  0  0  0  0  0  0  0  0  0  0  0
  -13.4035  -26.3789   18.5014 C   0  0  0  0  0  0  0  0  0  0  0  0
  -12.3430  -27.3064   17.8425 C   0  0  0  0  0  0  0  0  0  0  0  0
  -12.1365  -27.1730   16.4198 N   0  0  0  0  0  0  0  0  0  0  0  0
  -11.2802  -27.8924   15.5223 C   0  0  0  0  0  0  0  0  0  0  0  0
  -10.5745  -28.8421   15.7076 O   0  0  0  0  0  0  0  0  0  0  0  0
  -11.3517  -27.2344   14.1091 C   0  0  0  0  0  0  0  0  0  0  0  0
   -9.9853  -27.1834   13.4295 C   0  0  0  0  0  0  0  0  0  0  0  0
  -10.0405  -25.8991   12.6398 C   0  0  0  0  0  0  0  0  0  0  0  0
  -10.8516  -25.0221   13.5578 C   0  0  0  0  0  0  0  0  0  0  0  0
  -11.8564  -25.8841   14.1229 O   0  0  0  0  0  0  0  0  0  0  0  0
  -13.4094  -23.6164   18.7657 C   0  0  0  0  0  0  0  0  0  0  0  0
  -12.4885  -22.9611   20.3849 C   0  0  0  0  0  0  0  0  0  0  0  0
  -11.2518  -22.0932   20.7051 C   0  0  0  0  0  0  0  0  0  0  0  0
  -11.2512  -21.5785   21.9802 C   0  0  0  0  0  0  0  0  0  0  0  0
  -12.3034  -22.1672   22.5578 N   0  0  0  0  0  0  0  0  0  0  0  0
  -12.3084  -22.4807   23.9616 C   0  0  0  0  0  0  0  0  0  0  0  0
  -12.1977  -21.3954   24.9736 C   0  0  0  0  0  0  0  0  0  0  0  0
  -11.8599  -22.3175   26.2253 C   0  0  0  0  0  0  0  0  0  0  0  0
  -12.7277  -23.5660   26.0404 C   0  0  0  0  0  0  0  0  0  0  0  0
  -13.4077  -23.3035   24.6920 C   0  0  0  0  0  0  0  0  0  0  0  0
  -12.9865  -22.9123   21.6702 N   0  0  0  0  0  0  0  0  0  0  0  0
  -14.4999  -24.4690   16.0745 H   0  0  0  0  0  0  0  0  0  0  0  0
  -14.6972  -26.1275   16.4537 H   0  0  0  0  0  0  0  0  0  0  0  0
  -15.6180  -24.9624   17.3846 H   0  0  0  0  0  0  0  0  0  0  0  0
  -14.3548  -26.9288   18.4576 H   0  0  0  0  0  0  0  0  0  0  0  0
  -13.2260  -26.2531   19.5566 H   0  0  0  0  0  0  0  0  0  0  0  0
  -11.3562  -27.1305   18.2669 H   0  0  0  0  0  0  0  0  0  0  0  0
  -12.5811  -28.3559   18.0479 H   0  0  0  0  0  0  0  0  0  0  0  0
  -12.5214  -26.3672   15.9346 H   0  0  0  0  0  0  0  0  0  0  0  0
  -12.0551  -27.8292   13.5146 H   0  0  0  0  0  0  0  0  0  0  0  0
   -9.7984  -28.0614   12.8039 H   0  0  0  0  0  0  0  0  0  0  0  0
   -9.1800  -27.1319   14.1718 H   0  0  0  0  0  0  0  0  0  0  0  0
  -10.5840  -26.0671   11.7026 H   0  0  0  0  0  0  0  0  0  0  0  0
   -9.0580  -25.4857   12.4005 H   0  0  0  0  0  0  0  0  0  0  0  0
  -11.3296  -24.1906   13.0353 H   0  0  0  0  0  0  0  0  0  0  0  0
  -10.2382  -24.6271   14.3746 H   0  0  0  0  0  0  0  0  0  0  0  0
  -14.5052  -23.5514   18.7169 H   0  0  0  0  0  0  0  0  0  0  0  0
  -13.4370  -22.6879   18.1862 H   0  0  0  0  0  0  0  0  0  0  0  0
  -10.3301  -21.9511   20.1722 H   0  0  0  0  0  0  0  0  0  0  0  0
  -10.4860  -21.0635   22.5341 H   0  0  0  0  0  0  0  0  0  0  0  0
  -11.3292  -22.9660   24.0607 H   0  0  0  0  0  0  0  0  0  0  0  0
  -13.1725  -20.8958   24.9497 H   0  0  0  0  0  0  0  0  0  0  0  0
  -11.5148  -20.5886   24.7232 H   0  0  0  0  0  0  0  0  0  0  0  0
  -10.8257  -22.6775   26.1793 H   0  0  0  0  0  0  0  0  0  0  0  0
  -11.9338  -21.8720   27.2180 H   0  0  0  0  0  0  0  0  0  0  0  0
  -13.4329  -23.7975   26.8339 H   0  0  0  0  0  0  0  0  0  0  0  0
  -12.0752  -24.4467   25.9936 H   0  0  0  0  0  0  0  0  0  0  0  0
  -14.3287  -22.7186   24.8169 H   0  0  0  0  0  0  0  0  0  0  0  0
  -13.7148  -24.2393   24.2379 H   0  0  0  0  0  0  0  0  0  0  0  0
  1  2  1  0
  2  3  1  0
  3  4  1  0
  4  5  1  0
  5  6  1  0
  6  7  2  0
  6  8  1  0
  8  9  1  0
  9 10  1  0
 10 11  1  0
 11 12  1  0
  2 13  1  0
 13 14  1  0
 14 15  1  0
 15 16  2  0
 16 17  1  0
 17 18  1  0
 18 19  1  0
 19 20  1  0
 20 21  1  0
 21 22  1  0
 17 23  1  0
 12  8  1  0
 23 14  2  0
 22 18  1  0
  1 24  1  0
  1 25  1  0
  1 26  1  0
  3 27  1  0
  3 28  1  0
  4 29  1  0
  4 30  1  0
  5 31  1  0
  8 32  1  0
  9 33  1  0
  9 34  1  0
 10 35  1  0
 10 36  1  0
 11 37  1  0
 11 38  1  0
 13 39  1  0
 13 40  1  0
 15 41  1  0
 16 42  1  0
 18 43  1  0
 19 44  1  0
 19 45  1  0
 20 46  1  0
 20 47  1  0
 21 48  1  0
 21 49  1  0
 22 50  1  0
 22 51  1  0
M  END
>  <Energy>  (475) 
265.63415350190309

>  <compound_id>  (475) 
5505

>  <target_id>  (475) 
1

>  <reference_id>  (475) 
96

>  <inspiration_ids>  (475) 
[96, 28]

>  <energy_score>  (475) 
149.0133427211549

>  <distance_score>  (475) 
7.082829513047974

>  <path>  (475) 
/opt/xchem-fragalysis-2/maxwin/BulkDock/SCRATCH/511018/C5505-P96/C5505-P96.minimised.mol

>  <scratch_subdir>  (475) 
/opt/xchem-fragalysis-2/maxwin/BulkDock/SCRATCH/511018/C5505-P96

>  <fragmenstein_runtime>  (475) 
69.44220614433289

>  <fragmenstein_outcome>  (475) 
too moved

>  <fragmenstein_mode>  (475) 
expansion

>  <fragmenstein_error>  (475) 


$$$$
C5505-P28
     RDKit          3D

 51 53  0  0  0  0  0  0  0  0999 V2000
  -13.9333  -26.9872   18.8485 C   0  0  0  0  0  0  0  0  0  0  0  0
  -12.6950  -26.1616   18.7440 N   0  0  0  0  0  0  0  0  0  0  0  0
  -12.5368  -26.0692   17.2433 C   0  0  0  0  0  0  0  0  0  0  0  0
  -12.5767  -27.3596   16.3904 C   0  0  0  0  0  0  0  0  0  0  0  0
  -12.2166  -27.0207   15.0336 N   0  0  0  0  0  0  0  0  0  0  0  0
  -11.3675  -27.6852   14.0940 C   0  0  0  0  0  0  0  0  0  0  0  0
  -10.7982  -28.7351   14.1614 O   0  0  0  0  0  0  0  0  0  0  0  0
  -11.2138  -26.7567   12.8558 C   0  0  0  0  0  0  0  0  0  0  0  0
   -9.7486  -26.4667   12.5586 C   0  0  0  0  0  0  0  0  0  0  0  0
   -9.7618  -25.0155   12.1508 C   0  0  0  0  0  0  0  0  0  0  0  0
  -10.8468  -24.4546   13.0327 C   0  0  0  0  0  0  0  0  0  0  0  0
  -11.8605  -25.4719   13.0628 O   0  0  0  0  0  0  0  0  0  0  0  0
  -13.0222  -24.6969   19.7017 C   0  0  0  0  0  0  0  0  0  0  0  0
  -12.4148  -23.2272   20.8266 C   0  0  0  0  0  0  0  0  0  0  0  0
  -11.3356  -22.2172   21.0806 C   0  0  0  0  0  0  0  0  0  0  0  0
  -11.5015  -21.5701   22.3074 C   0  0  0  0  0  0  0  0  0  0  0  0
  -12.6698  -22.0044   22.7513 N   0  0  0  0  0  0  0  0  0  0  0  0
  -13.4989  -21.7369   23.9180 C   0  0  0  0  0  0  0  0  0  0  0  0
  -13.8784  -22.9999   24.7053 C   0  0  0  0  0  0  0  0  0  0  0  0
  -12.9030  -23.0291   25.8656 C   0  0  0  0  0  0  0  0  0  0  0  0
  -12.9067  -21.5885   26.2961 C   0  0  0  0  0  0  0  0  0  0  0  0
  -12.9317  -20.8051   24.9781 C   0  0  0  0  0  0  0  0  0  0  0  0
  -13.2322  -22.7277   21.8274 N   0  0  0  0  0  0  0  0  0  0  0  0
  -14.7231  -26.6467   18.1670 H   0  0  0  0  0  0  0  0  0  0  0  0
  -13.7086  -28.0418   18.6579 H   0  0  0  0  0  0  0  0  0  0  0  0
  -14.3788  -26.9462   19.8337 H   0  0  0  0  0  0  0  0  0  0  0  0
  -11.5582  -25.6714   16.9889 H   0  0  0  0  0  0  0  0  0  0  0  0
  -13.3045  -25.3912   16.8496 H   0  0  0  0  0  0  0  0  0  0  0  0
  -11.8706  -28.1076   16.7646 H   0  0  0  0  0  0  0  0  0  0  0  0
  -13.5774  -27.7986   16.3505 H   0  0  0  0  0  0  0  0  0  0  0  0
  -12.5934  -26.1753   14.6007 H   0  0  0  0  0  0  0  0  0  0  0  0
  -11.7145  -27.2365   12.0081 H   0  0  0  0  0  0  0  0  0  0  0  0
   -9.3447  -27.1227   11.7816 H   0  0  0  0  0  0  0  0  0  0  0  0
   -9.1304  -26.6018   13.4538 H   0  0  0  0  0  0  0  0  0  0  0  0
  -10.0584  -24.9408   11.0996 H   0  0  0  0  0  0  0  0  0  0  0  0
   -8.7999  -24.5187   12.2780 H   0  0  0  0  0  0  0  0  0  0  0  0
  -11.2703  -23.5232   12.6492 H   0  0  0  0  0  0  0  0  0  0  0  0
  -10.4927  -24.2913   14.0565 H   0  0  0  0  0  0  0  0  0  0  0  0
  -13.3954  -25.3408   20.4507 H   0  0  0  0  0  0  0  0  0  0  0  0
  -13.7681  -24.4126   18.9793 H   0  0  0  0  0  0  0  0  0  0  0  0
  -10.3986  -22.0595   20.5747 H   0  0  0  0  0  0  0  0  0  0  0  0
  -10.8548  -20.9245   22.8628 H   0  0  0  0  0  0  0  0  0  0  0  0
  -14.4126  -21.2851   23.5058 H   0  0  0  0  0  0  0  0  0  0  0  0
  -14.9088  -22.8757   25.0555 H   0  0  0  0  0  0  0  0  0  0  0  0
  -13.8740  -23.9287   24.1415 H   0  0  0  0  0  0  0  0  0  0  0  0
  -13.1573  -23.7530   26.6382 H   0  0  0  0  0  0  0  0  0  0  0  0
  -11.8921  -23.2846   25.5570 H   0  0  0  0  0  0  0  0  0  0  0  0
  -13.7961  -21.3142   26.8679 H   0  0  0  0  0  0  0  0  0  0  0  0
  -12.0451  -21.4147   26.9332 H   0  0  0  0  0  0  0  0  0  0  0  0
  -11.9526  -20.4693   24.6592 H   0  0  0  0  0  0  0  0  0  0  0  0
  -13.5551  -19.9099   25.0870 H   0  0  0  0  0  0  0  0  0  0  0  0
  1  2  1  0
  2  3  1  0
  3  4  1  0
  4  5  1  0
  5  6  1  0
  6  7  2  0
  6  8  1  0
  8  9  1  0
  9 10  1  0
 10 11  1  0
 11 12  1  0
  2 13  1  0
 13 14  1  0
 14 15  1  0
 15 16  2  0
 16 17  1  0
 17 18  1  0
 18 19  1  0
 19 20  1  0
 20 21  1  0
 21 22  1  0
 17 23  1  0
 12  8  1  0
 23 14  2  0
 22 18  1  0
  1 24  1  0
  1 25  1  0
  1 26  1  0
  3 27  1  0
  3 28  1  0
  4 29  1  0
  4 30  1  0
  5 31  1  0
  8 32  1  0
  9 33  1  0
  9 34  1  0
 10 35  1  0
 10 36  1  0
 11 37  1  0
 11 38  1  0
 13 39  1  0
 13 40  1  0
 15 41  1  0
 16 42  1  0
 18 43  1  0
 19 44  1  0
 19 45  1  0
 20 46  1  0
 20 47  1  0
 21 48  1  0
 21 49  1  0
 22 50  1  0
 22 51  1  0
M  END
>  <Energy>  (476) 
260.44364831231599

>  <compound_id>  (476) 
5505

>  <target_id>  (476) 
1

>  <reference_id>  (476) 
28

>  <inspiration_ids>  (476) 
[96, 28]

>  <energy_score>  (476) 
143.8228375315581

>  <distance_score>  (476) 
6.989724042446106

>  <path>  (476) 
/opt/xchem-fragalysis-2/maxwin/BulkDock/SCRATCH/511018/C5505-P28/C5505-P28.minimised.mol

>  <scratch_subdir>  (476) 
/opt/xchem-fragalysis-2/maxwin/BulkDock/SCRATCH/511018/C5505-P28

>  <fragmenstein_runtime>  (476) 
84.92011904716492

>  <fragmenstein_outcome>  (476) 
too moved

>  <fragmenstein_mode>  (476) 
expansion

>  <fragmenstein_error>  (476) 


$$$$
C5508-P96
     RDKit          3D

 53 55  0  0  0  0  0  0  0  0999 V2000
  -18.8093  -26.8611   23.8038 C   0  0  0  0  0  0  0  0  0  0  0  0
  -17.2885  -27.0735   23.7810 C   0  0  0  0  0  0  0  0  0  0  0  0
  -16.6682  -26.3684   25.0606 C   0  0  0  0  0  0  0  0  0  0  0  0
  -15.4649  -26.9589   25.6860 N   0  0  0  0  0  0  0  0  0  0  0  0
  -14.7394  -27.9924   25.0036 C   0  0  0  0  0  0  0  0  0  0  0  0
  -14.9713  -26.5628   26.9445 C   0  0  0  0  0  0  0  0  0  0  0  0
  -15.3737  -27.1376   27.9535 O   0  0  0  0  0  0  0  0  0  0  0  0
  -13.9194  -25.5530   26.9722 C   0  0  0  0  0  0  0  0  0  0  0  0
  -13.5414  -24.6760   25.9718 C   0  0  0  0  0  0  0  0  0  0  0  0
  -12.4629  -23.9341   26.4617 C   0  0  0  0  0  0  0  0  0  0  0  0
  -12.1495  -24.2880   27.6969 N   0  0  0  0  0  0  0  0  0  0  0  0
  -13.0387  -25.2630   28.0156 N   0  0  0  0  0  0  0  0  0  0  0  0
  -12.8825  -25.8803   29.3350 C   0  0  0  0  0  0  0  0  0  0  0  0
  -11.4728  -26.4760   29.5450 C   0  0  0  0  0  0  0  0  0  0  0  0
  -10.8412  -25.7313   30.7241 C   0  0  0  0  0  0  0  0  0  0  0  0
  -11.6435  -24.4560   30.8788 C   0  0  0  0  0  0  0  0  0  0  0  0
  -13.0522  -24.8836   30.4962 C   0  0  0  0  0  0  0  0  0  0  0  0
  -16.8033  -26.6449   22.4508 N   0  0  0  0  0  0  0  0  0  0  0  0
  -16.9636  -27.2469   21.1417 C   0  0  0  0  0  0  0  0  0  0  0  0
  -17.4627  -28.2881   20.8159 O   0  0  0  0  0  0  0  0  0  0  0  0
  -16.4589  -26.2518   19.9941 C   0  0  0  0  0  0  0  0  0  0  0  0
  -16.4060  -26.8966   18.6057 C   0  0  0  0  0  0  0  0  0  0  0  0
  -15.5553  -25.9294   17.8164 C   0  0  0  0  0  0  0  0  0  0  0  0
  -14.5532  -25.4829   18.8508 C   0  0  0  0  0  0  0  0  0  0  0  0
  -15.1858  -25.6154   20.1356 O   0  0  0  0  0  0  0  0  0  0  0  0
  -19.0572  -25.7968   23.7238 H   0  0  0  0  0  0  0  0  0  0  0  0
  -19.2479  -27.2492   24.7290 H   0  0  0  0  0  0  0  0  0  0  0  0
  -19.2933  -27.3771   22.9673 H   0  0  0  0  0  0  0  0  0  0  0  0
  -17.1266  -28.1553   23.8305 H   0  0  0  0  0  0  0  0  0  0  0  0
  -17.4150  -26.3957   25.8657 H   0  0  0  0  0  0  0  0  0  0  0  0
  -16.4893  -25.3057   24.8897 H   0  0  0  0  0  0  0  0  0  0  0  0
  -15.3436  -28.9025   24.9714 H   0  0  0  0  0  0  0  0  0  0  0  0
  -14.5160  -27.6486   23.9951 H   0  0  0  0  0  0  0  0  0  0  0  0
  -13.8094  -28.2141   25.5298 H   0  0  0  0  0  0  0  0  0  0  0  0
  -13.9813  -24.5876   25.0014 H   0  0  0  0  0  0  0  0  0  0  0  0
  -11.8939  -23.1488   25.9797 H   0  0  0  0  0  0  0  0  0  0  0  0
  -13.6314  -26.6692   29.4183 H   0  0  0  0  0  0  0  0  0  0  0  0
  -11.5415  -27.5458   29.7732 H   0  0  0  0  0  0  0  0  0  0  0  0
  -10.8431  -26.3860   28.6528 H   0  0  0  0  0  0  0  0  0  0  0  0
  -10.9296  -26.3437   31.6278 H   0  0  0  0  0  0  0  0  0  0  0  0
   -9.7790  -25.5258   30.5629 H   0  0  0  0  0  0  0  0  0  0  0  0
  -11.5945  -24.0542   31.8949 H   0  0  0  0  0  0  0  0  0  0  0  0
  -11.2719  -23.6843   30.1962 H   0  0  0  0  0  0  0  0  0  0  0  0
  -13.6710  -24.0199   30.2528 H   0  0  0  0  0  0  0  0  0  0  0  0
  -13.5151  -25.3975   31.3482 H   0  0  0  0  0  0  0  0  0  0  0  0
  -16.2524  -25.7839   22.3575 H   0  0  0  0  0  0  0  0  0  0  0  0
  -17.2047  -25.4449   19.9730 H   0  0  0  0  0  0  0  0  0  0  0  0
  -17.4004  -27.0434   18.1738 H   0  0  0  0  0  0  0  0  0  0  0  0
  -15.9130  -27.8750   18.6516 H   0  0  0  0  0  0  0  0  0  0  0  0
  -16.1706  -25.0827   17.4952 H   0  0  0  0  0  0  0  0  0  0  0  0
  -15.0915  -26.3695   16.9299 H   0  0  0  0  0  0  0  0  0  0  0  0
  -13.6721  -26.1306   18.8465 H   0  0  0  0  0  0  0  0  0  0  0  0
  -14.2316  -24.4483   18.7091 H   0  0  0  0  0  0  0  0  0  0  0  0
  1  2  1  0
  2  3  1  0
  3  4  1  0
  4  5  1  0
  4  6  1  0
  6  7  2  0
  6  8  1  0
  8  9  2  0
  9 10  1  0
 10 11  2  0
 11 12  1  0
 12 13  1  0
 13 14  1  0
 14 15  1  0
 15 16  1  0
 16 17  1  0
  2 18  1  0
 18 19  1  0
 19 20  2  0
 19 21  1  0
 21 22  1  0
 22 23  1  0
 23 24  1  0
 24 25  1  0
 12  8  1  0
 17 13  1  0
 25 21  1  0
  1 26  1  0
  1 27  1  0
  1 28  1  0
  2 29  1  0
  3 30  1  0
  3 31  1  0
  5 32  1  0
  5 33  1  0
  5 34  1  0
  9 35  1  0
 10 36  1  0
 13 37  1  0
 14 38  1  0
 14 39  1  0
 15 40  1  0
 15 41  1  0
 16 42  1  0
 16 43  1  0
 17 44  1  0
 17 45  1  0
 18 46  1  0
 21 47  1  0
 22 48  1  0
 22 49  1  0
 23 50  1  0
 23 51  1  0
 24 52  1  0
 24 53  1  0
M  END
>  <Energy>  (477) 
53.648550122004082

>  <compound_id>  (477) 
5508

>  <target_id>  (477) 
1

>  <reference_id>  (477) 
96

>  <inspiration_ids>  (477) 
[96, 28]

>  <energy_score>  (477) 
-6.3650445599156456

>  <distance_score>  (477) 
10.441903507536253

>  <path>  (477) 
/opt/xchem-fragalysis-2/maxwin/BulkDock/SCRATCH/511018/C5508-P96/C5508-P96.minimised.mol

>  <scratch_subdir>  (477) 
/opt/xchem-fragalysis-2/maxwin/BulkDock/SCRATCH/511018/C5508-P96

>  <fragmenstein_runtime>  (477) 
67.75275945663452

>  <fragmenstein_outcome>  (477) 
too moved

>  <fragmenstein_mode>  (477) 
expansion

>  <fragmenstein_error>  (477) 


$$$$
C5508-P28
     RDKit          3D

 53 55  0  0  0  0  0  0  0  0999 V2000
   -8.0414  -35.4929   18.7451 C   0  0  0  0  0  0  0  0  0  0  0  0
   -8.0347  -34.0169   19.1499 C   0  0  0  0  0  0  0  0  0  0  0  0
   -9.5518  -33.6002   19.8937 C   0  0  0  0  0  0  0  0  0  0  0  0
   -9.5823  -33.2210   21.7360 N   0  0  0  0  0  0  0  0  0  0  0  0
   -9.8978  -34.0921   20.6225 C   0  0  0  0  0  0  0  0  0  0  0  0
  -10.0283  -33.8729   22.9158 C   0  0  0  0  0  0  0  0  0  0  0  0
   -9.3269  -34.6224   23.5814 O   0  0  0  0  0  0  0  0  0  0  0  0
  -11.3740  -33.5077   23.3728 C   0  0  0  0  0  0  0  0  0  0  0  0
  -12.4029  -32.8839   22.6762 C   0  0  0  0  0  0  0  0  0  0  0  0
  -13.4284  -32.6660   23.5969 C   0  0  0  0  0  0  0  0  0  0  0  0
  -13.0761  -33.0190   24.8253 N   0  0  0  0  0  0  0  0  0  0  0  0
  -11.8398  -33.5749   24.6947 N   0  0  0  0  0  0  0  0  0  0  0  0
  -11.1956  -34.1127   25.9063 C   0  0  0  0  0  0  0  0  0  0  0  0
  -12.0544  -34.0234   27.1929 C   0  0  0  0  0  0  0  0  0  0  0  0
  -11.6773  -32.6899   27.8222 C   0  0  0  0  0  0  0  0  0  0  0  0
  -10.1716  -32.6643   27.6586 C   0  0  0  0  0  0  0  0  0  0  0  0
   -9.8848  -33.4329   26.3593 C   0  0  0  0  0  0  0  0  0  0  0  0
   -7.6944  -33.2214   17.9473 N   0  0  0  0  0  0  0  0  0  0  0  0
   -8.5336  -32.5483   16.9908 C   0  0  0  0  0  0  0  0  0  0  0  0
   -9.7252  -32.3923   16.9676 O   0  0  0  0  0  0  0  0  0  0  0  0
   -7.7122  -31.9945   15.7472 C   0  0  0  0  0  0  0  0  0  0  0  0
   -6.5035  -31.1118   16.0333 C   0  0  0  0  0  0  0  0  0  0  0  0
   -6.6910  -29.8757   15.1748 C   0  0  0  0  0  0  0  0  0  0  0  0
   -8.1672  -29.8600   14.8789 C   0  0  0  0  0  0  0  0  0  0  0  0
   -8.5703  -31.2339   14.8628 O   0  0  0  0  0  0  0  0  0  0  0  0
   -8.8582  -35.7011   18.0454 H   0  0  0  0  0  0  0  0  0  0  0  0
   -7.1028  -35.7620   18.2475 H   0  0  0  0  0  0  0  0  0  0  0  0
   -8.1540  -36.1522   19.6103 H   0  0  0  0  0  0  0  0  0  0  0  0
   -7.2424  -33.8244   19.8834 H   0  0  0  0  0  0  0  0  0  0  0  0
   -9.2944  -32.4668   19.7360 H   0  0  0  0  0  0  0  0  0  0  0  0
  -10.4562  -33.4008   19.0893 H   0  0  0  0  0  0  0  0  0  0  0  0
   -9.1625  -34.9113   21.1167 H   0  0  0  0  0  0  0  0  0  0  0  0
  -10.4268  -35.1657   20.6780 H   0  0  0  0  0  0  0  0  0  0  0  0
  -11.0706  -33.9715   20.8300 H   0  0  0  0  0  0  0  0  0  0  0  0
  -12.4154  -32.6040   21.6331 H   0  0  0  0  0  0  0  0  0  0  0  0
  -14.4058  -32.2311   23.4321 H   0  0  0  0  0  0  0  0  0  0  0  0
  -11.0181  -35.1680   25.6646 H   0  0  0  0  0  0  0  0  0  0  0  0
  -13.1319  -34.1193   27.0322 H   0  0  0  0  0  0  0  0  0  0  0  0
  -11.7621  -34.8357   27.8721 H   0  0  0  0  0  0  0  0  0  0  0  0
  -11.9892  -32.6366   28.8680 H   0  0  0  0  0  0  0  0  0  0  0  0
  -12.1407  -31.8582   27.2815 H   0  0  0  0  0  0  0  0  0  0  0  0
   -9.7755  -31.6497   27.6570 H   0  0  0  0  0  0  0  0  0  0  0  0
   -9.6980  -33.1894   28.4974 H   0  0  0  0  0  0  0  0  0  0  0  0
   -9.1362  -34.2056   26.5777 H   0  0  0  0  0  0  0  0  0  0  0  0
   -9.4441  -32.8099   25.5874 H   0  0  0  0  0  0  0  0  0  0  0  0
   -6.7391  -33.2275   17.6022 H   0  0  0  0  0  0  0  0  0  0  0  0
   -7.4024  -32.8821   15.1820 H   0  0  0  0  0  0  0  0  0  0  0  0
   -5.5745  -31.6285   15.7648 H   0  0  0  0  0  0  0  0  0  0  0  0
   -6.4022  -30.8699   17.0929 H   0  0  0  0  0  0  0  0  0  0  0  0
   -6.1313  -30.0021   14.2403 H   0  0  0  0  0  0  0  0  0  0  0  0
   -6.3394  -28.9563   15.6508 H   0  0  0  0  0  0  0  0  0  0  0  0
   -8.7441  -29.3369   15.6449 H   0  0  0  0  0  0  0  0  0  0  0  0
   -8.3941  -29.4025   13.9117 H   0  0  0  0  0  0  0  0  0  0  0  0
  1  2  1  0
  2  3  1  0
  3  4  1  0
  4  5  1  0
  4  6  1  0
  6  7  2  0
  6  8  1  0
  8  9  2  0
  9 10  1  0
 10 11  2  0
 11 12  1  0
 12 13  1  0
 13 14  1  0
 14 15  1  0
 15 16  1  0
 16 17  1  0
  2 18  1  0
 18 19  1  0
 19 20  2  0
 19 21  1  0
 21 22  1  0
 22 23  1  0
 23 24  1  0
 24 25  1  0
 12  8  1  0
 17 13  1  0
 25 21  1  0
  1 26  1  0
  1 27  1  0
  1 28  1  0
  2 29  1  0
  3 30  1  0
  3 31  1  0
  5 32  1  0
  5 33  1  0
  5 34  1  0
  9 35  1  0
 10 36  1  0
 13 37  1  0
 14 38  1  0
 14 39  1  0
 15 40  1  0
 15 41  1  0
 16 42  1  0
 16 43  1  0
 17 44  1  0
 17 45  1  0
 18 46  1  0
 21 47  1  0
 22 48  1  0
 22 49  1  0
 23 50  1  0
 23 51  1  0
 24 52  1  0
 24 53  1  0
M  END
>  <Energy>  (478) 
606.35368305229269

>  <compound_id>  (478) 
5508

>  <target_id>  (478) 
1

>  <reference_id>  (478) 
28

>  <inspiration_ids>  (478) 
[96, 28]

>  <energy_score>  (478) 
546.3400883703756

>  <distance_score>  (478) 
10.446617775242732

>  <path>  (478) 
/opt/xchem-fragalysis-2/maxwin/BulkDock/SCRATCH/511018/C5508-P28/C5508-P28.minimised.mol

>  <scratch_subdir>  (478) 
/opt/xchem-fragalysis-2/maxwin/BulkDock/SCRATCH/511018/C5508-P28

>  <fragmenstein_runtime>  (478) 
69.20201587677002

>  <fragmenstein_outcome>  (478) 
too moved

>  <fragmenstein_mode>  (478) 
expansion

>  <fragmenstein_error>  (478) 


$$$$
C5512-P96
     RDKit          3D

 53 55  0  0  0  0  0  0  0  0999 V2000
  -13.3907  -27.9784   18.4325 C   0  0  0  0  0  0  0  0  0  0  0  0
  -12.6482  -29.5037   18.7229 C   0  0  0  0  0  0  0  0  0  0  0  0
  -13.6227  -30.5419   17.5338 C   0  0  0  0  0  0  0  0  0  0  0  0
  -13.5199  -30.0500   16.1619 N   0  0  0  0  0  0  0  0  0  0  0  0
  -14.2839  -29.0508   15.4556 C   0  0  0  0  0  0  0  0  0  0  0  0
  -15.2489  -28.4262   15.7886 O   0  0  0  0  0  0  0  0  0  0  0  0
  -13.5669  -28.7703   14.0910 C   0  0  0  0  0  0  0  0  0  0  0  0
  -13.8970  -27.4191   13.4716 C   0  0  0  0  0  0  0  0  0  0  0  0
  -12.8344  -26.5222   14.0573 C   0  0  0  0  0  0  0  0  0  0  0  0
  -11.6338  -27.4376   14.0981 C   0  0  0  0  0  0  0  0  0  0  0  0
  -12.1346  -28.7757   14.2843 O   0  0  0  0  0  0  0  0  0  0  0  0
  -10.7424  -29.4832   19.0281 N   0  0  0  0  0  0  0  0  0  0  0  0
  -11.7946  -29.5546   18.2328 C   0  0  0  0  0  0  0  0  0  0  0  0
  -10.4404  -29.3420   20.8617 C   0  0  0  0  0  0  0  0  0  0  0  0
  -10.3579  -30.4951   21.3804 O   0  0  0  0  0  0  0  0  0  0  0  0
  -10.1641  -27.7029   21.9297 C   0  0  0  0  0  0  0  0  0  0  0  0
   -9.9371  -26.4582   21.6005 C   0  0  0  0  0  0  0  0  0  0  0  0
   -9.8067  -27.2460   22.6751 C   0  0  0  0  0  0  0  0  0  0  0  0
  -10.7611  -27.1364   23.7171 N   0  0  0  0  0  0  0  0  0  0  0  0
   -9.7092  -27.7356   23.9280 N   0  0  0  0  0  0  0  0  0  0  0  0
   -9.5581  -26.4162   25.4854 C   0  0  0  0  0  0  0  0  0  0  0  0
  -10.8364  -25.5000   25.8587 C   0  0  0  0  0  0  0  0  0  0  0  0
  -10.6687  -25.0669   27.3000 C   0  0  0  0  0  0  0  0  0  0  0  0
   -9.9904  -26.2277   27.9567 C   0  0  0  0  0  0  0  0  0  0  0  0
   -9.0257  -26.8804   26.9096 C   0  0  0  0  0  0  0  0  0  0  0  0
  -13.1657  -27.6300   17.4163 H   0  0  0  0  0  0  0  0  0  0  0  0
  -13.0256  -27.1922   19.0801 H   0  0  0  0  0  0  0  0  0  0  0  0
  -14.4782  -28.0898   18.4840 H   0  0  0  0  0  0  0  0  0  0  0  0
  -12.9376  -30.1443   19.6069 H   0  0  0  0  0  0  0  0  0  0  0  0
  -14.6646  -30.4606   17.8616 H   0  0  0  0  0  0  0  0  0  0  0  0
  -13.2784  -31.5808   17.5864 H   0  0  0  0  0  0  0  0  0  0  0  0
  -12.7083  -30.3085   15.5976 H   0  0  0  0  0  0  0  0  0  0  0  0
  -13.8363  -29.5896   13.4151 H   0  0  0  0  0  0  0  0  0  0  0  0
  -13.7644  -27.4721   12.3840 H   0  0  0  0  0  0  0  0  0  0  0  0
  -14.9120  -27.0655   13.6706 H   0  0  0  0  0  0  0  0  0  0  0  0
  -13.1247  -26.2434   15.0757 H   0  0  0  0  0  0  0  0  0  0  0  0
  -12.6600  -25.6082   13.4841 H   0  0  0  0  0  0  0  0  0  0  0  0
  -11.0861  -27.4184   13.1501 H   0  0  0  0  0  0  0  0  0  0  0  0
  -10.9423  -27.1899   14.9085 H   0  0  0  0  0  0  0  0  0  0  0  0
  -11.3685  -28.5325   17.7844 H   0  0  0  0  0  0  0  0  0  0  0  0
  -11.4257  -30.6843   18.0364 H   0  0  0  0  0  0  0  0  0  0  0  0
  -11.4745  -29.6701   17.0998 H   0  0  0  0  0  0  0  0  0  0  0  0
   -9.3539  -25.7349   21.0894 H   0  0  0  0  0  0  0  0  0  0  0  0
   -8.4419  -27.7490   23.0125 H   0  0  0  0  0  0  0  0  0  0  0  0
   -8.8788  -25.7173   25.1347 H   0  0  0  0  0  0  0  0  0  0  0  0
  -11.8091  -25.9789   25.7191 H   0  0  0  0  0  0  0  0  0  0  0  0
  -10.7802  -24.5560   25.3177 H   0  0  0  0  0  0  0  0  0  0  0  0
  -11.6265  -24.8209   27.7690 H   0  0  0  0  0  0  0  0  0  0  0  0
  -10.0393  -24.1715   27.3633 H   0  0  0  0  0  0  0  0  0  0  0  0
  -10.7405  -26.9525   28.2938 H   0  0  0  0  0  0  0  0  0  0  0  0
   -9.4619  -25.8575   28.8419 H   0  0  0  0  0  0  0  0  0  0  0  0
   -8.0264  -26.5345   27.1333 H   0  0  0  0  0  0  0  0  0  0  0  0
   -8.8881  -27.9678   26.9849 H   0  0  0  0  0  0  0  0  0  0  0  0
  1  2  1  0
  2  3  1  0
  3  4  1  0
  4  5  1  0
  5  6  2  0
  5  7  1  0
  7  8  1  0
  8  9  1  0
  9 10  1  0
 10 11  1  0
  2 12  1  0
 12 13  1  0
 12 14  1  0
 14 15  2  0
 14 16  1  0
 16 17  2  0
 17 18  1  0
 18 19  2  0
 19 20  1  0
 20 21  1  0
 21 22  1  0
 22 23  1  0
 23 24  1  0
 24 25  1  0
 11  7  1  0
 20 16  1  0
 25 21  1  0
  1 26  1  0
  1 27  1  0
  1 28  1  0
  2 29  1  0
  3 30  1  0
  3 31  1  0
  4 32  1  0
  7 33  1  0
  8 34  1  0
  8 35  1  0
  9 36  1  0
  9 37  1  0
 10 38  1  0
 10 39  1  0
 13 40  1  0
 13 41  1  0
 13 42  1  0
 17 43  1  0
 18 44  1  0
 21 45  1  0
 22 46  1  0
 22 47  1  0
 23 48  1  0
 23 49  1  0
 24 50  1  0
 24 51  1  0
 25 52  1  0
 25 53  1  0
M  END
>  <Energy>  (479) 
1509.4975895537232

>  <compound_id>  (479) 
5512

>  <target_id>  (479) 
1

>  <reference_id>  (479) 
96

>  <inspiration_ids>  (479) 
[96, 28]

>  <energy_score>  (479) 
1439.2653713307452

>  <distance_score>  (479) 
6.720323093417005

>  <path>  (479) 
/opt/xchem-fragalysis-2/maxwin/BulkDock/SCRATCH/511018/C5512-P96/C5512-P96.minimised.mol

>  <scratch_subdir>  (479) 
/opt/xchem-fragalysis-2/maxwin/BulkDock/SCRATCH/511018/C5512-P96

>  <fragmenstein_runtime>  (479) 
60.39097189903259

>  <fragmenstein_outcome>  (479) 
too moved

>  <fragmenstein_mode>  (479) 
expansion

>  <fragmenstein_error>  (479) 


$$$$
C5512-P28
     RDKit          3D

 53 55  0  0  0  0  0  0  0  0999 V2000
  -15.9541  -28.4823   19.2268 C   0  0  0  0  0  0  0  0  0  0  0  0
  -16.1166  -27.0660   19.8268 C   0  0  0  0  0  0  0  0  0  0  0  0
  -16.3477  -26.0872   18.6106 C   0  0  0  0  0  0  0  0  0  0  0  0
  -15.2572  -26.0576   17.5730 N   0  0  0  0  0  0  0  0  0  0  0  0
  -15.1695  -25.2826   16.2064 C   0  0  0  0  0  0  0  0  0  0  0  0
  -15.9003  -24.4965   15.7308 O   0  0  0  0  0  0  0  0  0  0  0  0
  -13.8807  -25.8065   15.3598 C   0  0  0  0  0  0  0  0  0  0  0  0
  -13.6268  -25.0137   14.0473 C   0  0  0  0  0  0  0  0  0  0  0  0
  -12.1303  -25.0080   13.8014 C   0  0  0  0  0  0  0  0  0  0  0  0
  -11.5907  -25.8417   14.9360 C   0  0  0  0  0  0  0  0  0  0  0  0
  -12.5951  -25.8742   15.9762 O   0  0  0  0  0  0  0  0  0  0  0  0
  -17.1200  -27.2097   20.9916 N   0  0  0  0  0  0  0  0  0  0  0  0
  -18.5252  -27.2797   20.6397 C   0  0  0  0  0  0  0  0  0  0  0  0
  -16.8387  -27.2859   22.4156 C   0  0  0  0  0  0  0  0  0  0  0  0
  -16.6563  -28.4033   22.9007 O   0  0  0  0  0  0  0  0  0  0  0  0
  -16.8734  -26.1133   23.3239 C   0  0  0  0  0  0  0  0  0  0  0  0
  -17.8111  -25.0895   23.2090 C   0  0  0  0  0  0  0  0  0  0  0  0
  -17.8093  -24.3996   24.4246 C   0  0  0  0  0  0  0  0  0  0  0  0
  -16.9069  -24.8696   25.2798 N   0  0  0  0  0  0  0  0  0  0  0  0
  -16.2446  -25.8533   24.5831 N   0  0  0  0  0  0  0  0  0  0  0  0
  -14.8917  -26.1855   25.1230 C   0  0  0  0  0  0  0  0  0  0  0  0
  -14.0273  -24.9223   25.3309 C   0  0  0  0  0  0  0  0  0  0  0  0
  -12.9714  -25.2515   26.3665 C   0  0  0  0  0  0  0  0  0  0  0  0
  -13.5885  -26.3601   27.1919 C   0  0  0  0  0  0  0  0  0  0  0  0
  -14.8316  -26.8739   26.4934 C   0  0  0  0  0  0  0  0  0  0  0  0
  -15.9420  -29.2547   20.0013 H   0  0  0  0  0  0  0  0  0  0  0  0
  -16.7884  -28.7234   18.5583 H   0  0  0  0  0  0  0  0  0  0  0  0
  -15.0268  -28.5680   18.6518 H   0  0  0  0  0  0  0  0  0  0  0  0
  -15.1669  -26.7636   20.2493 H   0  0  0  0  0  0  0  0  0  0  0  0
  -16.4789  -25.0602   18.9600 H   0  0  0  0  0  0  0  0  0  0  0  0
  -17.2685  -26.3481   18.0770 H   0  0  0  0  0  0  0  0  0  0  0  0
  -14.4087  -26.6033   17.7104 H   0  0  0  0  0  0  0  0  0  0  0  0
  -14.1438  -26.8369   15.0825 H   0  0  0  0  0  0  0  0  0  0  0  0
  -14.0000  -23.9865   14.1196 H   0  0  0  0  0  0  0  0  0  0  0  0
  -14.1702  -25.4777   13.2163 H   0  0  0  0  0  0  0  0  0  0  0  0
  -11.7331  -23.9892   13.8303 H   0  0  0  0  0  0  0  0  0  0  0  0
  -11.8610  -25.4263   12.8266 H   0  0  0  0  0  0  0  0  0  0  0  0
  -11.4237  -26.8753   14.6122 H   0  0  0  0  0  0  0  0  0  0  0  0
  -10.6496  -25.4576   15.3303 H   0  0  0  0  0  0  0  0  0  0  0  0
  -18.8157  -26.3458   20.1513 H   0  0  0  0  0  0  0  0  0  0  0  0
  -19.1458  -27.4262   21.5289 H   0  0  0  0  0  0  0  0  0  0  0  0
  -18.6868  -28.1181   19.9576 H   0  0  0  0  0  0  0  0  0  0  0  0
  -18.4974  -24.9392   22.3873 H   0  0  0  0  0  0  0  0  0  0  0  0
  -18.4520  -23.5825   24.7300 H   0  0  0  0  0  0  0  0  0  0  0  0
  -14.4416  -26.8376   24.3693 H   0  0  0  0  0  0  0  0  0  0  0  0
  -13.6655  -24.5962   24.3710 H   0  0  0  0  0  0  0  0  0  0  0  0
  -14.5854  -24.0283   25.5996 H   0  0  0  0  0  0  0  0  0  0  0  0
  -12.6923  -24.3646   26.9404 H   0  0  0  0  0  0  0  0  0  0  0  0
  -12.0552  -25.6410   25.9152 H   0  0  0  0  0  0  0  0  0  0  0  0
  -13.8959  -25.9822   28.1586 H   0  0  0  0  0  0  0  0  0  0  0  0
  -12.8714  -27.1749   27.2858 H   0  0  0  0  0  0  0  0  0  0  0  0
  -14.7946  -27.9617   26.3655 H   0  0  0  0  0  0  0  0  0  0  0  0
  -15.7289  -26.6782   27.0910 H   0  0  0  0  0  0  0  0  0  0  0  0
  1  2  1  0
  2  3  1  0
  3  4  1  0
  4  5  1  0
  5  6  2  0
  5  7  1  0
  7  8  1  0
  8  9  1  0
  9 10  1  0
 10 11  1  0
  2 12  1  0
 12 13  1  0
 12 14  1  0
 14 15  2  0
 14 16  1  0
 16 17  2  0
 17 18  1  0
 18 19  2  0
 19 20  1  0
 20 21  1  0
 21 22  1  0
 22 23  1  0
 23 24  1  0
 24 25  1  0
 11  7  1  0
 20 16  1  0
 25 21  1  0
  1 26  1  0
  1 27  1  0
  1 28  1  0
  2 29  1  0
  3 30  1  0
  3 31  1  0
  4 32  1  0
  7 33  1  0
  8 34  1  0
  8 35  1  0
  9 36  1  0
  9 37  1  0
 10 38  1  0
 10 39  1  0
 13 40  1  0
 13 41  1  0
 13 42  1  0
 17 43  1  0
 18 44  1  0
 21 45  1  0
 22 46  1  0
 22 47  1  0
 23 48  1  0
 23 49  1  0
 24 50  1  0
 24 51  1  0
 25 52  1  0
 25 53  1  0
M  END
>  <Energy>  (480) 
100.04583197598267

>  <compound_id>  (480) 
5512

>  <target_id>  (480) 
1

>  <reference_id>  (480) 
28

>  <inspiration_ids>  (480) 
[96, 28]

>  <energy_score>  (480) 
29.7587794193214

>  <distance_score>  (480) 
8.132992045485521

>  <path>  (480) 
/opt/xchem-fragalysis-2/maxwin/BulkDock/SCRATCH/511018/C5512-P28/C5512-P28.minimised.mol

>  <scratch_subdir>  (480) 
/opt/xchem-fragalysis-2/maxwin/BulkDock/SCRATCH/511018/C5512-P28

>  <fragmenstein_runtime>  (480) 
54.6482036113739

>  <fragmenstein_outcome>  (480) 
too moved

>  <fragmenstein_mode>  (480) 
expansion

>  <fragmenstein_error>  (480) 


$$$$
C5514-P45
     RDKit          3D

 31 33  0  0  0  0  0  0  0  0999 V2000
  -12.8377  -27.5818   25.7808 O   0  0  0  0  0  0  0  0  0  0  0  0
  -11.8185  -27.1886   26.2625 C   0  0  0  0  0  0  0  0  0  0  0  0
  -11.2891  -25.8566   26.3847 N   0  0  0  0  0  0  0  0  0  0  0  0
  -11.8550  -24.5919   26.0597 C   0  0  0  0  0  0  0  0  0  0  0  0
  -11.7923  -23.8322   27.3724 C   0  0  0  0  0  0  0  0  0  0  0  0
  -11.6074  -22.4873   27.5912 C   0  0  0  0  0  0  0  0  0  0  0  0
  -11.5988  -22.0421   28.8955 N   0  0  0  0  0  0  0  0  0  0  0  0
  -11.7271  -23.0638   29.6961 C   0  0  0  0  0  0  0  0  0  0  0  0
  -11.8812  -24.5741   28.9322 S   0  0  0  0  0  0  0  0  0  0  0  0
  -10.8496  -28.1294   27.0033 C   0  0  0  0  0  0  0  0  0  0  0  0
  -10.9265  -27.8925   28.4570 C   0  0  0  0  0  0  0  0  0  0  0  0
   -9.9637  -27.1744   29.0649 C   0  0  0  0  0  0  0  0  0  0  0  0
   -8.8737  -26.7437   28.2677 C   0  0  0  0  0  0  0  0  0  0  0  0
   -8.1665  -25.6382   28.2721 N   0  0  0  0  0  0  0  0  0  0  0  0
   -7.1848  -25.8197   27.2993 C   0  0  0  0  0  0  0  0  0  0  0  0
   -6.0901  -24.8047   27.0990 C   0  0  0  0  0  0  0  0  0  0  0  0
   -6.3899  -23.9267   26.1097 F   0  0  0  0  0  0  0  0  0  0  0  0
   -5.8686  -24.0610   28.2168 F   0  0  0  0  0  0  0  0  0  0  0  0
   -4.9060  -25.3842   26.7875 F   0  0  0  0  0  0  0  0  0  0  0  0
   -7.3688  -27.0642   26.7068 C   0  0  0  0  0  0  0  0  0  0  0  0
   -8.6006  -27.4901   27.1295 N   0  0  0  0  0  0  0  0  0  0  0  0
   -9.6014  -28.2369   26.4837 C   0  0  0  0  0  0  0  0  0  0  0  0
  -10.4410  -25.8878   26.9205 H   0  0  0  0  0  0  0  0  0  0  0  0
  -11.2210  -24.1232   25.3042 H   0  0  0  0  0  0  0  0  0  0  0  0
  -12.8641  -24.7079   25.6690 H   0  0  0  0  0  0  0  0  0  0  0  0
  -11.4952  -21.7653   26.8016 H   0  0  0  0  0  0  0  0  0  0  0  0
  -11.7205  -22.9455   30.7702 H   0  0  0  0  0  0  0  0  0  0  0  0
  -11.8109  -28.2393   28.9824 H   0  0  0  0  0  0  0  0  0  0  0  0
  -10.0059  -26.9024   30.1126 H   0  0  0  0  0  0  0  0  0  0  0  0
   -6.8005  -27.6027   25.9630 H   0  0  0  0  0  0  0  0  0  0  0  0
   -9.4142  -28.4737   25.4468 H   0  0  0  0  0  0  0  0  0  0  0  0
  1  2  2  0
  2  3  1  0
  3  4  1  0
  4  5  1  0
  5  6  2  0
  6  7  1  0
  7  8  2  0
  8  9  1  0
  2 10  1  0
 10 11  1  0
 11 12  2  0
 12 13  1  0
 13 14  2  0
 14 15  1  0
 15 16  1  0
 16 17  1  0
 16 18  1  0
 16 19  1  0
 15 20  2  0
 20 21  1  0
 21 22  1  0
  9  5  1  0
 22 10  2  0
 21 13  1  0
  3 23  1  0
  4 24  1  0
  4 25  1  0
  6 26  1  0
  8 27  1  0
 11 28  1  0
 12 29  1  0
 20 30  1  0
 22 31  1  0
M  END
>  <Energy>  (481) 
122.32530974139159

>  <compound_id>  (481) 
5514

>  <target_id>  (481) 
1

>  <reference_id>  (481) 
45

>  <inspiration_ids>  (481) 
[45, 88]

>  <energy_score>  (481) 
-0.015957214252807717

>  <distance_score>  (481) 
2.5069336034279806

>  <path>  (481) 
/opt/xchem-fragalysis-2/maxwin/BulkDock/SCRATCH/511018/C5514-P45/C5514-P45.minimised.mol

>  <scratch_subdir>  (481) 
/opt/xchem-fragalysis-2/maxwin/BulkDock/SCRATCH/511018/C5514-P45

>  <fragmenstein_runtime>  (481) 
7.4335126876831055

>  <fragmenstein_outcome>  (481) 
too moved

>  <fragmenstein_mode>  (481) 
expansion

>  <fragmenstein_error>  (481) 


$$$$
C5514-P88
     RDKit          3D

 31 33  0  0  0  0  0  0  0  0999 V2000
  -10.9124  -25.3150   25.5252 O   0  0  0  0  0  0  0  0  0  0  0  0
  -11.1051  -25.2403   26.6552 C   0  0  0  0  0  0  0  0  0  0  0  0
  -11.8292  -24.1863   27.4582 N   0  0  0  0  0  0  0  0  0  0  0  0
  -12.3821  -22.9687   27.0657 C   0  0  0  0  0  0  0  0  0  0  0  0
  -11.9631  -22.2397   28.3425 C   0  0  0  0  0  0  0  0  0  0  0  0
  -11.1650  -21.1414   28.5442 C   0  0  0  0  0  0  0  0  0  0  0  0
  -11.0093  -20.7245   29.8519 N   0  0  0  0  0  0  0  0  0  0  0  0
  -11.6038  -21.5610   30.6664 C   0  0  0  0  0  0  0  0  0  0  0  0
  -12.3839  -22.8640   29.9156 S   0  0  0  0  0  0  0  0  0  0  0  0
  -10.6089  -26.1218   27.7178 C   0  0  0  0  0  0  0  0  0  0  0  0
  -11.4280  -26.9238   28.5909 C   0  0  0  0  0  0  0  0  0  0  0  0
  -11.4057  -26.6808   29.9154 C   0  0  0  0  0  0  0  0  0  0  0  0
  -10.5278  -25.6825   30.4584 C   0  0  0  0  0  0  0  0  0  0  0  0
  -10.3583  -25.2408   31.6774 N   0  0  0  0  0  0  0  0  0  0  0  0
   -9.3587  -24.2714   31.6202 C   0  0  0  0  0  0  0  0  0  0  0  0
   -8.9462  -23.5140   32.8525 C   0  0  0  0  0  0  0  0  0  0  0  0
   -7.7370  -22.9177   32.7136 F   0  0  0  0  0  0  0  0  0  0  0  0
   -9.8311  -22.5206   33.1383 F   0  0  0  0  0  0  0  0  0  0  0  0
   -8.8829  -24.3055   33.9535 F   0  0  0  0  0  0  0  0  0  0  0  0
   -8.9487  -24.1228   30.3102 C   0  0  0  0  0  0  0  0  0  0  0  0
   -9.6425  -25.0601   29.6061 N   0  0  0  0  0  0  0  0  0  0  0  0
   -9.6807  -25.2875   28.2570 C   0  0  0  0  0  0  0  0  0  0  0  0
  -11.7406  -24.3933   28.4438 H   0  0  0  0  0  0  0  0  0  0  0  0
  -13.4481  -23.1042   26.8956 H   0  0  0  0  0  0  0  0  0  0  0  0
  -11.8774  -22.5941   26.1728 H   0  0  0  0  0  0  0  0  0  0  0  0
  -10.7164  -20.5627   27.7559 H   0  0  0  0  0  0  0  0  0  0  0  0
  -11.6080  -21.4285   31.7419 H   0  0  0  0  0  0  0  0  0  0  0  0
  -12.1041  -27.6529   28.1574 H   0  0  0  0  0  0  0  0  0  0  0  0
  -12.0386  -27.2334   30.6014 H   0  0  0  0  0  0  0  0  0  0  0  0
   -8.2552  -23.4341   29.8612 H   0  0  0  0  0  0  0  0  0  0  0  0
   -9.2901  -24.4378   27.7379 H   0  0  0  0  0  0  0  0  0  0  0  0
  1  2  2  0
  2  3  1  0
  3  4  1  0
  4  5  1  0
  5  6  2  0
  6  7  1  0
  7  8  2  0
  8  9  1  0
  2 10  1  0
 10 11  1  0
 11 12  2  0
 12 13  1  0
 13 14  2  0
 14 15  1  0
 15 16  1  0
 16 17  1  0
 16 18  1  0
 16 19  1  0
 15 20  2  0
 20 21  1  0
 21 22  1  0
  9  5  1  0
 22 10  2  0
 21 13  1  0
  3 23  1  0
  4 24  1  0
  4 25  1  0
  6 26  1  0
  8 27  1  0
 11 28  1  0
 12 29  1  0
 20 30  1  0
 22 31  1  0
M  END
>  <Energy>  (482) 
124.90219575838641

>  <compound_id>  (482) 
5514

>  <target_id>  (482) 
1

>  <reference_id>  (482) 
88

>  <inspiration_ids>  (482) 
[45, 88]

>  <energy_score>  (482) 
19.458121935053214

>  <distance_score>  (482) 
3.6911536332855976

>  <path>  (482) 
/opt/xchem-fragalysis-2/maxwin/BulkDock/SCRATCH/511018/C5514-P88/C5514-P88.minimised.mol

>  <scratch_subdir>  (482) 
/opt/xchem-fragalysis-2/maxwin/BulkDock/SCRATCH/511018/C5514-P88

>  <fragmenstein_runtime>  (482) 
4.186976671218872

>  <fragmenstein_outcome>  (482) 
too moved

>  <fragmenstein_mode>  (482) 
expansion

>  <fragmenstein_error>  (482) 


$$$$
C5515-P45
     RDKit          3D

 31 33  0  0  0  0  0  0  0  0999 V2000
   -6.2249  -23.5114   27.4658 C   0  0  0  0  0  0  0  0  0  0  0  0
   -7.0684  -24.7066   27.5772 C   0  0  0  0  0  0  0  0  0  0  0  0
   -6.9009  -25.9351   26.9730 C   0  0  0  0  0  0  0  0  0  0  0  0
   -7.9905  -26.6726   27.3380 N   0  0  0  0  0  0  0  0  0  0  0  0
   -8.4918  -27.8779   26.8308 C   0  0  0  0  0  0  0  0  0  0  0  0
   -9.7566  -28.1935   27.1910 C   0  0  0  0  0  0  0  0  0  0  0  0
  -10.7250  -27.6434   26.4123 N   0  0  0  0  0  0  0  0  0  0  0  0
  -12.1682  -27.7877   26.4454 C   0  0  0  0  0  0  0  0  0  0  0  0
  -12.8704  -28.4954   27.1145 O   0  0  0  0  0  0  0  0  0  0  0  0
  -12.7368  -26.7257   25.4859 C   0  0  0  0  0  0  0  0  0  0  0  0
  -12.2312  -26.8452   24.2290 F   0  0  0  0  0  0  0  0  0  0  0  0
  -14.0883  -26.7853   25.3663 F   0  0  0  0  0  0  0  0  0  0  0  0
  -12.3265  -25.3951   26.1207 C   0  0  0  0  0  0  0  0  0  0  0  0
  -11.9495  -24.2027   25.5485 C   0  0  0  0  0  0  0  0  0  0  0  0
  -11.5671  -23.2155   26.4322 N   0  0  0  0  0  0  0  0  0  0  0  0
  -11.6544  -23.6165   27.6716 C   0  0  0  0  0  0  0  0  0  0  0  0
  -12.2465  -25.1942   27.8559 S   0  0  0  0  0  0  0  0  0  0  0  0
  -10.1496  -27.7402   28.5435 C   0  0  0  0  0  0  0  0  0  0  0  0
   -9.6439  -26.6052   29.0577 C   0  0  0  0  0  0  0  0  0  0  0  0
   -8.6419  -25.9293   28.3185 C   0  0  0  0  0  0  0  0  0  0  0  0
   -8.1417  -24.7226   28.4306 N   0  0  0  0  0  0  0  0  0  0  0  0
   -5.2794  -23.6545   27.9939 H   0  0  0  0  0  0  0  0  0  0  0  0
   -6.7309  -22.6353   27.8749 H   0  0  0  0  0  0  0  0  0  0  0  0
   -6.0276  -23.3247   26.4118 H   0  0  0  0  0  0  0  0  0  0  0  0
   -6.1358  -26.3259   26.3213 H   0  0  0  0  0  0  0  0  0  0  0  0
   -8.0252  -28.2320   25.9204 H   0  0  0  0  0  0  0  0  0  0  0  0
  -10.4724  -27.0104   25.6618 H   0  0  0  0  0  0  0  0  0  0  0  0
  -11.9095  -23.9782   24.4916 H   0  0  0  0  0  0  0  0  0  0  0  0
  -11.3860  -22.9804   28.5056 H   0  0  0  0  0  0  0  0  0  0  0  0
  -10.9643  -28.2627   29.0404 H   0  0  0  0  0  0  0  0  0  0  0  0
   -9.9735  -26.1959   30.0035 H   0  0  0  0  0  0  0  0  0  0  0  0
  1  2  1  0
  2  3  2  0
  3  4  1  0
  4  5  1  0
  5  6  2  0
  6  7  1  0
  7  8  1  0
  8  9  2  0
  8 10  1  0
 10 11  1  0
 10 12  1  0
 10 13  1  0
 13 14  2  0
 14 15  1  0
 15 16  2  0
 16 17  1  0
  6 18  1  0
 18 19  2  0
 19 20  1  0
 20 21  2  0
 21  2  1  0
 20  4  1  0
 17 13  1  0
  1 22  1  0
  1 23  1  0
  1 24  1  0
  3 25  1  0
  5 26  1  0
  7 27  1  0
 14 28  1  0
 16 29  1  0
 18 30  1  0
 19 31  1  0
M  END
>  <Energy>  (483) 
148.82967128885915

>  <compound_id>  (483) 
5515

>  <target_id>  (483) 
1

>  <reference_id>  (483) 
45

>  <inspiration_ids>  (483) 
[45, 88]

>  <energy_score>  (483) 
-19.6853451638018

>  <distance_score>  (483) 
2.757971591123425

>  <path>  (483) 
/opt/xchem-fragalysis-2/maxwin/BulkDock/SCRATCH/511018/C5515-P45/C5515-P45.minimised.mol

>  <scratch_subdir>  (483) 
/opt/xchem-fragalysis-2/maxwin/BulkDock/SCRATCH/511018/C5515-P45

>  <fragmenstein_runtime>  (483) 
6.9356138706207275

>  <fragmenstein_outcome>  (483) 
too moved

>  <fragmenstein_mode>  (483) 
expansion

>  <fragmenstein_error>  (483) 


$$$$
C5515-P88
     RDKit          3D

 31 33  0  0  0  0  0  0  0  0999 V2000
   -8.9056  -23.1602   32.5645 C   0  0  0  0  0  0  0  0  0  0  0  0
   -9.5530  -24.1204   31.6450 C   0  0  0  0  0  0  0  0  0  0  0  0
   -9.4883  -24.2173   30.2716 C   0  0  0  0  0  0  0  0  0  0  0  0
  -10.3049  -25.2686   29.9388 N   0  0  0  0  0  0  0  0  0  0  0  0
  -10.6224  -25.7988   28.6930 C   0  0  0  0  0  0  0  0  0  0  0  0
  -11.6240  -26.7085   28.6049 C   0  0  0  0  0  0  0  0  0  0  0  0
  -12.4160  -26.4423   27.5469 N   0  0  0  0  0  0  0  0  0  0  0  0
  -13.8764  -26.4575   27.4116 C   0  0  0  0  0  0  0  0  0  0  0  0
  -14.7311  -26.7937   28.1851 O   0  0  0  0  0  0  0  0  0  0  0  0
  -14.1885  -25.8097   26.0260 C   0  0  0  0  0  0  0  0  0  0  0  0
  -15.5100  -25.7887   25.7095 F   0  0  0  0  0  0  0  0  0  0  0  0
  -13.5595  -26.5198   25.0384 F   0  0  0  0  0  0  0  0  0  0  0  0
  -13.6000  -24.3833   26.0686 C   0  0  0  0  0  0  0  0  0  0  0  0
  -13.4630  -23.4406   25.0726 C   0  0  0  0  0  0  0  0  0  0  0  0
  -12.3973  -22.5733   25.2162 N   0  0  0  0  0  0  0  0  0  0  0  0
  -11.9661  -22.6229   26.4496 C   0  0  0  0  0  0  0  0  0  0  0  0
  -12.7861  -23.7069   27.4449 S   0  0  0  0  0  0  0  0  0  0  0  0
  -12.1742  -27.2744   29.8139 C   0  0  0  0  0  0  0  0  0  0  0  0
  -11.8275  -26.7848   31.0172 C   0  0  0  0  0  0  0  0  0  0  0  0
  -10.8882  -25.7130   31.1096 C   0  0  0  0  0  0  0  0  0  0  0  0
  -10.3871  -25.0853   32.1467 N   0  0  0  0  0  0  0  0  0  0  0  0
   -9.4073  -22.1895   32.5129 H   0  0  0  0  0  0  0  0  0  0  0  0
   -7.8530  -23.0236   32.3130 H   0  0  0  0  0  0  0  0  0  0  0  0
   -8.9588  -23.5149   33.5988 H   0  0  0  0  0  0  0  0  0  0  0  0
   -8.9585  -23.6370   29.5369 H   0  0  0  0  0  0  0  0  0  0  0  0
  -10.2084  -25.2553   27.8537 H   0  0  0  0  0  0  0  0  0  0  0  0
  -12.0085  -26.0148   26.7175 H   0  0  0  0  0  0  0  0  0  0  0  0
  -13.9367  -23.4592   24.1125 H   0  0  0  0  0  0  0  0  0  0  0  0
  -11.2076  -21.9661   26.8448 H   0  0  0  0  0  0  0  0  0  0  0  0
  -12.8942  -28.0836   29.7327 H   0  0  0  0  0  0  0  0  0  0  0  0
  -12.2319  -27.2043   31.9310 H   0  0  0  0  0  0  0  0  0  0  0  0
  1  2  1  0
  2  3  2  0
  3  4  1  0
  4  5  1  0
  5  6  2  0
  6  7  1  0
  7  8  1  0
  8  9  2  0
  8 10  1  0
 10 11  1  0
 10 12  1  0
 10 13  1  0
 13 14  2  0
 14 15  1  0
 15 16  2  0
 16 17  1  0
  6 18  1  0
 18 19  2  0
 19 20  1  0
 20 21  2  0
 21  2  1  0
 20  4  1  0
 17 13  1  0
  1 22  1  0
  1 23  1  0
  1 24  1  0
  3 25  1  0
  5 26  1  0
  7 27  1  0
 14 28  1  0
 16 29  1  0
 18 30  1  0
 19 31  1  0
M  END
>  <Energy>  (484) 
128.32319289553652

>  <compound_id>  (484) 
5515

>  <target_id>  (484) 
1

>  <reference_id>  (484) 
88

>  <inspiration_ids>  (484) 
[45, 88]

>  <energy_score>  (484) 
-40.19182355712286

>  <distance_score>  (484) 
4.669055111568406

>  <path>  (484) 
/opt/xchem-fragalysis-2/maxwin/BulkDock/SCRATCH/511018/C5515-P88/C5515-P88.minimised.mol

>  <scratch_subdir>  (484) 
/opt/xchem-fragalysis-2/maxwin/BulkDock/SCRATCH/511018/C5515-P88

>  <fragmenstein_runtime>  (484) 
6.048203468322754

>  <fragmenstein_outcome>  (484) 
too moved

>  <fragmenstein_mode>  (484) 
expansion

>  <fragmenstein_error>  (484) 


$$$$
C5516-P45
     RDKit          3D

 31 33  0  0  0  0  0  0  0  0999 V2000
  -12.1951  -25.9179   24.6442 O   0  0  0  0  0  0  0  0  0  0  0  0
  -12.1408  -25.4557   25.7447 C   0  0  0  0  0  0  0  0  0  0  0  0
  -12.2779  -23.9425   25.9400 C   0  0  0  0  0  0  0  0  0  0  0  0
  -11.3757  -23.2735   26.9779 C   0  0  0  0  0  0  0  0  0  0  0  0
  -11.6520  -23.1340   28.4479 C   0  0  0  0  0  0  0  0  0  0  0  0
  -11.9828  -21.9923   29.1538 C   0  0  0  0  0  0  0  0  0  0  0  0
  -11.9430  -22.0477   30.5255 N   0  0  0  0  0  0  0  0  0  0  0  0
  -11.4415  -23.2001   30.8688 C   0  0  0  0  0  0  0  0  0  0  0  0
  -11.2025  -24.3073   29.5939 S   0  0  0  0  0  0  0  0  0  0  0  0
  -11.8651  -26.0688   26.9962 N   0  0  0  0  0  0  0  0  0  0  0  0
  -11.4896  -27.3398   27.3068 C   0  0  0  0  0  0  0  0  0  0  0  0
  -11.0574  -27.3913   28.6873 C   0  0  0  0  0  0  0  0  0  0  0  0
   -9.7403  -27.2907   28.9278 C   0  0  0  0  0  0  0  0  0  0  0  0
   -8.8438  -27.5526   27.8524 C   0  0  0  0  0  0  0  0  0  0  0  0
   -7.5605  -27.3367   27.6648 N   0  0  0  0  0  0  0  0  0  0  0  0
   -7.2138  -28.1451   26.6079 C   0  0  0  0  0  0  0  0  0  0  0  0
   -8.3274  -28.7754   26.1218 C   0  0  0  0  0  0  0  0  0  0  0  0
   -8.5350  -30.0262   25.0020 Cl  0  0  0  0  0  0  0  0  0  0  0  0
   -9.3936  -28.2033   26.7523 N   0  0  0  0  0  0  0  0  0  0  0  0
  -10.7414  -28.0170   26.4124 C   0  0  0  0  0  0  0  0  0  0  0  0
  -13.2982  -23.6164   25.9673 H   0  0  0  0  0  0  0  0  0  0  0  0
  -11.9279  -23.5463   24.9729 H   0  0  0  0  0  0  0  0  0  0  0  0
  -11.3303  -22.2293   26.6635 H   0  0  0  0  0  0  0  0  0  0  0  0
  -10.3821  -23.7274   26.8870 H   0  0  0  0  0  0  0  0  0  0  0  0
  -12.2145  -21.0431   28.7142 H   0  0  0  0  0  0  0  0  0  0  0  0
  -11.2058  -23.4373   31.9004 H   0  0  0  0  0  0  0  0  0  0  0  0
  -11.9864  -25.3848   27.7318 H   0  0  0  0  0  0  0  0  0  0  0  0
  -11.8047  -27.3419   29.4691 H   0  0  0  0  0  0  0  0  0  0  0  0
   -9.3823  -27.1738   29.9394 H   0  0  0  0  0  0  0  0  0  0  0  0
   -6.1856  -28.2628   26.2905 H   0  0  0  0  0  0  0  0  0  0  0  0
  -10.9065  -27.9930   25.3434 H   0  0  0  0  0  0  0  0  0  0  0  0
  1  2  2  0
  2  3  1  0
  3  4  1  0
  4  5  1  0
  5  6  2  0
  6  7  1  0
  7  8  2  0
  8  9  1  0
  2 10  1  0
 10 11  1  0
 11 12  1  0
 12 13  2  0
 13 14  1  0
 14 15  2  0
 15 16  1  0
 16 17  2  0
 17 18  1  0
 17 19  1  0
 19 20  1  0
  9  5  1  0
 20 11  2  0
 19 14  1  0
  3 21  1  0
  3 22  1  0
  4 23  1  0
  4 24  1  0
  6 25  1  0
  8 26  1  0
 10 27  1  0
 12 28  1  0
 13 29  1  0
 16 30  1  0
 20 31  1  0
M  END
>  <Energy>  (485) 
79.066270975378089

>  <compound_id>  (485) 
5516

>  <target_id>  (485) 
1

>  <reference_id>  (485) 
45

>  <inspiration_ids>  (485) 
[45, 88]

>  <energy_score>  (485) 
-37.87456312329499

>  <distance_score>  (485) 
3.3276085538188096

>  <path>  (485) 
/opt/xchem-fragalysis-2/maxwin/BulkDock/SCRATCH/511018/C5516-P45/C5516-P45.minimised.mol

>  <scratch_subdir>  (485) 
/opt/xchem-fragalysis-2/maxwin/BulkDock/SCRATCH/511018/C5516-P45

>  <fragmenstein_runtime>  (485) 
5.60701584815979

>  <fragmenstein_outcome>  (485) 
too moved

>  <fragmenstein_mode>  (485) 
expansion

>  <fragmenstein_error>  (485) 


$$$$
C5516-P88
     RDKit          3D

 31 33  0  0  0  0  0  0  0  0999 V2000
  -13.1077  -27.4595   26.5262 O   0  0  0  0  0  0  0  0  0  0  0  0
  -13.4143  -26.8244   27.4546 C   0  0  0  0  0  0  0  0  0  0  0  0
  -14.7125  -26.1102   27.6392 C   0  0  0  0  0  0  0  0  0  0  0  0
  -14.3609  -24.6839   27.0898 C   0  0  0  0  0  0  0  0  0  0  0  0
  -13.1715  -23.8976   27.6511 C   0  0  0  0  0  0  0  0  0  0  0  0
  -12.2384  -23.1469   26.9507 C   0  0  0  0  0  0  0  0  0  0  0  0
  -11.3643  -22.3867   27.7116 N   0  0  0  0  0  0  0  0  0  0  0  0
  -11.6513  -22.4989   28.9838 C   0  0  0  0  0  0  0  0  0  0  0  0
  -12.8815  -23.6244   29.3417 S   0  0  0  0  0  0  0  0  0  0  0  0
  -12.5987  -26.4216   28.7106 N   0  0  0  0  0  0  0  0  0  0  0  0
  -11.2997  -26.6233   29.0132 C   0  0  0  0  0  0  0  0  0  0  0  0
  -10.5298  -26.0923   27.8793 C   0  0  0  0  0  0  0  0  0  0  0  0
   -9.8019  -24.9866   28.0701 C   0  0  0  0  0  0  0  0  0  0  0  0
   -9.3906  -24.5636   29.3418 C   0  0  0  0  0  0  0  0  0  0  0  0
   -8.6923  -23.5152   29.7164 N   0  0  0  0  0  0  0  0  0  0  0  0
   -8.7087  -23.5435   31.0700 C   0  0  0  0  0  0  0  0  0  0  0  0
   -9.3818  -24.6406   31.5065 C   0  0  0  0  0  0  0  0  0  0  0  0
   -9.5716  -25.2034   33.0891 Cl  0  0  0  0  0  0  0  0  0  0  0  0
   -9.9263  -25.2472   30.4097 N   0  0  0  0  0  0  0  0  0  0  0  0
  -10.9201  -26.2341   30.2513 C   0  0  0  0  0  0  0  0  0  0  0  0
  -15.4901  -26.5803   27.0298 H   0  0  0  0  0  0  0  0  0  0  0  0
  -15.0550  -26.0859   28.6772 H   0  0  0  0  0  0  0  0  0  0  0  0
  -15.2555  -24.0598   27.2060 H   0  0  0  0  0  0  0  0  0  0  0  0
  -14.2047  -24.7735   26.0045 H   0  0  0  0  0  0  0  0  0  0  0  0
  -12.1776  -23.0683   25.8713 H   0  0  0  0  0  0  0  0  0  0  0  0
  -11.1209  -21.9418   29.7457 H   0  0  0  0  0  0  0  0  0  0  0  0
  -13.2000  -25.9333   29.3624 H   0  0  0  0  0  0  0  0  0  0  0  0
  -10.9073  -26.2360   26.8739 H   0  0  0  0  0  0  0  0  0  0  0  0
   -9.7059  -24.2601   27.2809 H   0  0  0  0  0  0  0  0  0  0  0  0
   -8.2013  -22.8167   31.6851 H   0  0  0  0  0  0  0  0  0  0  0  0
  -11.5025  -26.4467   31.1387 H   0  0  0  0  0  0  0  0  0  0  0  0
  1  2  2  0
  2  3  1  0
  3  4  1  0
  4  5  1  0
  5  6  2  0
  6  7  1  0
  7  8  2  0
  8  9  1  0
  2 10  1  0
 10 11  1  0
 11 12  1  0
 12 13  2  0
 13 14  1  0
 14 15  2  0
 15 16  1  0
 16 17  2  0
 17 18  1  0
 17 19  1  0
 19 20  1  0
  9  5  1  0
 20 11  2  0
 19 14  1  0
  3 21  1  0
  3 22  1  0
  4 23  1  0
  4 24  1  0
  6 25  1  0
  8 26  1  0
 10 27  1  0
 12 28  1  0
 13 29  1  0
 16 30  1  0
 20 31  1  0
M  END
>  <Energy>  (486) 
90.582429947364531

>  <compound_id>  (486) 
5516

>  <target_id>  (486) 
1

>  <reference_id>  (486) 
88

>  <inspiration_ids>  (486) 
[45, 88]

>  <energy_score>  (486) 
11.565241164682163

>  <distance_score>  (486) 
3.8583012395963987

>  <path>  (486) 
/opt/xchem-fragalysis-2/maxwin/BulkDock/SCRATCH/511018/C5516-P88/C5516-P88.minimised.mol

>  <scratch_subdir>  (486) 
/opt/xchem-fragalysis-2/maxwin/BulkDock/SCRATCH/511018/C5516-P88

>  <fragmenstein_runtime>  (486) 
6.792931318283081

>  <fragmenstein_outcome>  (486) 
too moved

>  <fragmenstein_mode>  (486) 
expansion

>  <fragmenstein_error>  (486) 


$$$$
C5517-P45
     RDKit          3D

 33 35  0  0  0  0  0  0  0  0999 V2000
   -7.0303  -24.9858   27.1987 C   0  0  0  0  0  0  0  0  0  0  0  0
   -8.2377  -24.9005   28.1078 C   0  0  0  0  0  0  0  0  0  0  0  0
   -9.1784  -26.0554   27.9988 C   0  0  0  0  0  0  0  0  0  0  0  0
   -9.4779  -26.8102   29.1146 N   0  0  0  0  0  0  0  0  0  0  0  0
  -10.5466  -27.5077   28.7974 C   0  0  0  0  0  0  0  0  0  0  0  0
  -11.4223  -28.3159   29.5781 C   0  0  0  0  0  0  0  0  0  0  0  0
  -12.4279  -28.9885   28.9914 C   0  0  0  0  0  0  0  0  0  0  0  0
  -12.6827  -28.8658   27.5710 C   0  0  0  0  0  0  0  0  0  0  0  0
  -11.9103  -28.0418   26.8472 C   0  0  0  0  0  0  0  0  0  0  0  0
  -10.8656  -27.3598   27.4624 N   0  0  0  0  0  0  0  0  0  0  0  0
  -10.1096  -26.3144   27.0086 C   0  0  0  0  0  0  0  0  0  0  0  0
  -10.4748  -25.4365   25.9573 C   0  0  0  0  0  0  0  0  0  0  0  0
   -9.7195  -24.8101   25.2415 O   0  0  0  0  0  0  0  0  0  0  0  0
  -11.8270  -25.3165   25.9234 O   0  0  0  0  0  0  0  0  0  0  0  0
  -12.1519  -23.9469   26.0936 C   0  0  0  0  0  0  0  0  0  0  0  0
  -11.9046  -23.5488   27.5259 C   0  0  0  0  0  0  0  0  0  0  0  0
  -11.4964  -22.3114   27.9513 C   0  0  0  0  0  0  0  0  0  0  0  0
  -11.3546  -22.0981   29.2957 N   0  0  0  0  0  0  0  0  0  0  0  0
  -11.6150  -23.2178   29.9167 C   0  0  0  0  0  0  0  0  0  0  0  0
  -12.0430  -24.5328   28.9213 S   0  0  0  0  0  0  0  0  0  0  0  0
   -6.5764  -25.9814   27.2000 H   0  0  0  0  0  0  0  0  0  0  0  0
   -6.2731  -24.2548   27.5007 H   0  0  0  0  0  0  0  0  0  0  0  0
   -7.3185  -24.7461   26.1772 H   0  0  0  0  0  0  0  0  0  0  0  0
   -7.9082  -24.8206   29.1442 H   0  0  0  0  0  0  0  0  0  0  0  0
   -8.7732  -23.9679   27.9028 H   0  0  0  0  0  0  0  0  0  0  0  0
  -11.2175  -28.4203   30.6364 H   0  0  0  0  0  0  0  0  0  0  0  0
  -13.0809  -29.6317   29.5739 H   0  0  0  0  0  0  0  0  0  0  0  0
  -13.5190  -29.4057   27.1403 H   0  0  0  0  0  0  0  0  0  0  0  0
  -12.0741  -27.8530   25.7943 H   0  0  0  0  0  0  0  0  0  0  0  0
  -11.5978  -23.3305   25.3883 H   0  0  0  0  0  0  0  0  0  0  0  0
  -13.1808  -23.8012   25.7833 H   0  0  0  0  0  0  0  0  0  0  0  0
  -11.3090  -21.5267   27.2500 H   0  0  0  0  0  0  0  0  0  0  0  0
  -11.5292  -23.2951   30.9911 H   0  0  0  0  0  0  0  0  0  0  0  0
  1  2  1  0
  2  3  1  0
  3  4  1  0
  4  5  2  0
  5  6  1  0
  6  7  2  0
  7  8  1  0
  8  9  2  0
  9 10  1  0
 10 11  1  0
 11 12  1  0
 12 13  2  0
 12 14  1  0
 14 15  1  0
 15 16  1  0
 16 17  2  0
 17 18  1  0
 18 19  2  0
 19 20  1  0
 11  3  2  0
 20 16  1  0
 10  5  1  0
  1 21  1  0
  1 22  1  0
  1 23  1  0
  2 24  1  0
  2 25  1  0
  6 26  1  0
  7 27  1  0
  8 28  1  0
  9 29  1  0
 15 30  1  0
 15 31  1  0
 17 32  1  0
 19 33  1  0
M  END
>  <Energy>  (487) 
23.112694473229169

>  <compound_id>  (487) 
5517

>  <target_id>  (487) 
1

>  <reference_id>  (487) 
45

>  <inspiration_ids>  (487) 
[45, 88]

>  <energy_score>  (487) 
-33.07174020980489

>  <distance_score>  (487) 
3.732517154450448

>  <path>  (487) 
/opt/xchem-fragalysis-2/maxwin/BulkDock/SCRATCH/511018/C5517-P45/C5517-P45.minimised.mol

>  <scratch_subdir>  (487) 
/opt/xchem-fragalysis-2/maxwin/BulkDock/SCRATCH/511018/C5517-P45

>  <fragmenstein_runtime>  (487) 
5.914602994918823

>  <fragmenstein_outcome>  (487) 
too moved

>  <fragmenstein_mode>  (487) 
expansion

>  <fragmenstein_error>  (487) 


$$$$
C5517-P88
     RDKit          3D

 33 35  0  0  0  0  0  0  0  0999 V2000
   -9.0234  -23.5737   30.3903 C   0  0  0  0  0  0  0  0  0  0  0  0
   -9.9942  -24.6839   30.6742 C   0  0  0  0  0  0  0  0  0  0  0  0
  -10.3914  -25.4717   29.4713 C   0  0  0  0  0  0  0  0  0  0  0  0
  -11.1755  -26.5863   29.6478 N   0  0  0  0  0  0  0  0  0  0  0  0
  -10.9111  -27.3624   28.6124 C   0  0  0  0  0  0  0  0  0  0  0  0
  -10.9518  -28.7934   28.5905 C   0  0  0  0  0  0  0  0  0  0  0  0
   -9.9099  -29.4893   28.0815 C   0  0  0  0  0  0  0  0  0  0  0  0
   -8.7753  -28.8141   27.4537 C   0  0  0  0  0  0  0  0  0  0  0  0
   -8.8151  -27.4617   27.2824 C   0  0  0  0  0  0  0  0  0  0  0  0
   -9.9811  -26.7021   27.7607 N   0  0  0  0  0  0  0  0  0  0  0  0
  -10.1318  -25.3764   28.1123 C   0  0  0  0  0  0  0  0  0  0  0  0
  -10.3997  -24.2594   27.2942 C   0  0  0  0  0  0  0  0  0  0  0  0
   -9.6821  -23.2961   27.0911 O   0  0  0  0  0  0  0  0  0  0  0  0
  -11.6629  -24.3574   26.8116 O   0  0  0  0  0  0  0  0  0  0  0  0
  -12.2344  -23.0508   26.8451 C   0  0  0  0  0  0  0  0  0  0  0  0
  -12.0338  -22.4982   28.2348 C   0  0  0  0  0  0  0  0  0  0  0  0
  -11.3451  -21.3738   28.6414 C   0  0  0  0  0  0  0  0  0  0  0  0
  -11.3963  -21.0859   29.9895 N   0  0  0  0  0  0  0  0  0  0  0  0
  -12.0813  -22.0199   30.6067 C   0  0  0  0  0  0  0  0  0  0  0  0
  -12.6780  -23.2796   29.6103 S   0  0  0  0  0  0  0  0  0  0  0  0
   -8.1405  -23.9592   29.8875 H   0  0  0  0  0  0  0  0  0  0  0  0
   -8.7189  -23.0813   31.3178 H   0  0  0  0  0  0  0  0  0  0  0  0
   -9.4463  -22.8375   29.7175 H   0  0  0  0  0  0  0  0  0  0  0  0
   -9.5004  -25.3580   31.3792 H   0  0  0  0  0  0  0  0  0  0  0  0
  -10.8573  -24.3339   31.2388 H   0  0  0  0  0  0  0  0  0  0  0  0
  -11.7837  -29.2930   29.0741 H   0  0  0  0  0  0  0  0  0  0  0  0
   -9.9182  -30.5738   28.0740 H   0  0  0  0  0  0  0  0  0  0  0  0
   -8.0069  -29.4341   27.0345 H   0  0  0  0  0  0  0  0  0  0  0  0
   -7.9678  -26.9499   26.9053 H   0  0  0  0  0  0  0  0  0  0  0  0
  -11.7909  -22.4260   26.0625 H   0  0  0  0  0  0  0  0  0  0  0  0
  -13.2997  -23.1552   26.6164 H   0  0  0  0  0  0  0  0  0  0  0  0
  -10.8070  -20.7064   27.9821 H   0  0  0  0  0  0  0  0  0  0  0  0
  -12.2567  -21.9999   31.6755 H   0  0  0  0  0  0  0  0  0  0  0  0
  1  2  1  0
  2  3  1  0
  3  4  1  0
  4  5  2  0
  5  6  1  0
  6  7  2  0
  7  8  1  0
  8  9  2  0
  9 10  1  0
 10 11  1  0
 11 12  1  0
 12 13  2  0
 12 14  1  0
 14 15  1  0
 15 16  1  0
 16 17  2  0
 17 18  1  0
 18 19  2  0
 19 20  1  0
 11  3  2  0
 20 16  1  0
 10  5  1  0
  1 21  1  0
  1 22  1  0
  1 23  1  0
  2 24  1  0
  2 25  1  0
  6 26  1  0
  7 27  1  0
  8 28  1  0
  9 29  1  0
 15 30  1  0
 15 31  1  0
 17 32  1  0
 19 33  1  0
M  END
>  <Energy>  (488) 
73.912905255824853

>  <compound_id>  (488) 
5517

>  <target_id>  (488) 
1

>  <reference_id>  (488) 
88

>  <inspiration_ids>  (488) 
[45, 88]

>  <energy_score>  (488) 
14.443831031575598

>  <distance_score>  (488) 
3.0611929128356343

>  <path>  (488) 
/opt/xchem-fragalysis-2/maxwin/BulkDock/SCRATCH/511018/C5517-P88/C5517-P88.minimised.mol

>  <scratch_subdir>  (488) 
/opt/xchem-fragalysis-2/maxwin/BulkDock/SCRATCH/511018/C5517-P88

>  <fragmenstein_runtime>  (488) 
3.174121141433716

>  <fragmenstein_outcome>  (488) 
too moved

>  <fragmenstein_mode>  (488) 
expansion

>  <fragmenstein_error>  (488) 


$$$$
C5518-P45
     RDKit          3D

 30 32  0  0  0  0  0  0  0  0999 V2000
   -8.8772  -30.0671   26.2035 C   0  0  0  0  0  0  0  0  0  0  0  0
   -7.9298  -28.9433   26.4941 C   0  0  0  0  0  0  0  0  0  0  0  0
   -6.6652  -28.9729   26.0347 C   0  0  0  0  0  0  0  0  0  0  0  0
   -5.6923  -27.9261   26.3031 C   0  0  0  0  0  0  0  0  0  0  0  0
   -6.1295  -26.7677   26.8079 C   0  0  0  0  0  0  0  0  0  0  0  0
   -7.4458  -26.7094   27.2289 N   0  0  0  0  0  0  0  0  0  0  0  0
   -8.1748  -25.7160   27.8089 C   0  0  0  0  0  0  0  0  0  0  0  0
   -7.9664  -24.3331   27.6979 C   0  0  0  0  0  0  0  0  0  0  0  0
   -6.8888  -23.7777   27.5479 O   0  0  0  0  0  0  0  0  0  0  0  0
   -9.1240  -23.6553   27.7961 O   0  0  0  0  0  0  0  0  0  0  0  0
  -10.4567  -24.1197   27.4487 C   0  0  0  0  0  0  0  0  0  0  0  0
  -11.2629  -23.4430   28.4651 C   0  0  0  0  0  0  0  0  0  0  0  0
  -11.7533  -22.1749   28.3668 C   0  0  0  0  0  0  0  0  0  0  0  0
  -12.1857  -21.6002   29.5295 N   0  0  0  0  0  0  0  0  0  0  0  0
  -11.9712  -22.4330   30.5156 C   0  0  0  0  0  0  0  0  0  0  0  0
  -11.4485  -23.9898   30.0525 S   0  0  0  0  0  0  0  0  0  0  0  0
   -9.1003  -26.3908   28.5673 C   0  0  0  0  0  0  0  0  0  0  0  0
   -9.2873  -27.6317   28.0865 N   0  0  0  0  0  0  0  0  0  0  0  0
   -8.2944  -27.8037   27.2471 C   0  0  0  0  0  0  0  0  0  0  0  0
   -8.7843  -30.8631   26.9464 H   0  0  0  0  0  0  0  0  0  0  0  0
   -8.7147  -30.4886   25.2066 H   0  0  0  0  0  0  0  0  0  0  0  0
   -9.9041  -29.7011   26.2573 H   0  0  0  0  0  0  0  0  0  0  0  0
   -6.3502  -29.7984   25.4091 H   0  0  0  0  0  0  0  0  0  0  0  0
   -4.6594  -28.0414   25.9975 H   0  0  0  0  0  0  0  0  0  0  0  0
   -5.4922  -25.9026   26.9484 H   0  0  0  0  0  0  0  0  0  0  0  0
  -10.7132  -23.7580   26.4505 H   0  0  0  0  0  0  0  0  0  0  0  0
  -10.6333  -25.1912   27.4095 H   0  0  0  0  0  0  0  0  0  0  0  0
  -11.7158  -21.6140   27.4496 H   0  0  0  0  0  0  0  0  0  0  0  0
  -12.1398  -22.1466   31.5458 H   0  0  0  0  0  0  0  0  0  0  0  0
   -9.7313  -26.0156   29.3563 H   0  0  0  0  0  0  0  0  0  0  0  0
  1  2  1  0
  2  3  2  0
  3  4  1  0
  4  5  2  0
  5  6  1  0
  6  7  1  0
  7  8  1  0
  8  9  2  0
  8 10  1  0
 10 11  1  0
 11 12  1  0
 12 13  2  0
 13 14  1  0
 14 15  2  0
 15 16  1  0
  7 17  2  0
 17 18  1  0
 18 19  2  0
 19  2  1  0
 19  6  1  0
 16 12  1  0
  1 20  1  0
  1 21  1  0
  1 22  1  0
  3 23  1  0
  4 24  1  0
  5 25  1  0
 11 26  1  0
 11 27  1  0
 13 28  1  0
 15 29  1  0
 17 30  1  0
M  END
>  <Energy>  (489) 
33.758258165744508

>  <compound_id>  (489) 
5518

>  <target_id>  (489) 
1

>  <reference_id>  (489) 
45

>  <inspiration_ids>  (489) 
[45, 88]

>  <energy_score>  (489) 
-53.9716014935716

>  <distance_score>  (489) 
2.0725201083524807

>  <path>  (489) 
/opt/xchem-fragalysis-2/maxwin/BulkDock/SCRATCH/511018/C5518-P45/C5518-P45.minimised.mol

>  <scratch_subdir>  (489) 
/opt/xchem-fragalysis-2/maxwin/BulkDock/SCRATCH/511018/C5518-P45

>  <fragmenstein_runtime>  (489) 
2.905616521835327

>  <fragmenstein_outcome>  (489) 
too moved

>  <fragmenstein_mode>  (489) 
expansion

>  <fragmenstein_error>  (489) 


$$$$
C5518-P88
     RDKit          3D

 30 32  0  0  0  0  0  0  0  0999 V2000
  -12.2784  -29.0140   29.3635 C   0  0  0  0  0  0  0  0  0  0  0  0
  -11.0386  -28.4912   28.6900 C   0  0  0  0  0  0  0  0  0  0  0  0
  -10.0831  -29.3484   28.2287 C   0  0  0  0  0  0  0  0  0  0  0  0
   -8.8490  -28.8935   27.5731 C   0  0  0  0  0  0  0  0  0  0  0  0
   -8.7255  -27.5763   27.2496 C   0  0  0  0  0  0  0  0  0  0  0  0
   -9.8276  -26.6784   27.5750 N   0  0  0  0  0  0  0  0  0  0  0  0
  -10.0832  -25.3323   27.5062 C   0  0  0  0  0  0  0  0  0  0  0  0
  -10.7890  -24.6056   26.4880 C   0  0  0  0  0  0  0  0  0  0  0  0
  -10.3321  -23.9818   25.5426 O   0  0  0  0  0  0  0  0  0  0  0  0
  -12.1128  -24.6135   26.7665 O   0  0  0  0  0  0  0  0  0  0  0  0
  -12.5534  -23.2644   26.8534 C   0  0  0  0  0  0  0  0  0  0  0  0
  -12.0875  -22.7659   28.1867 C   0  0  0  0  0  0  0  0  0  0  0  0
  -11.2607  -21.7129   28.5150 C   0  0  0  0  0  0  0  0  0  0  0  0
  -11.0625  -21.5073   29.8672 N   0  0  0  0  0  0  0  0  0  0  0  0
  -11.7473  -22.3863   30.5585 C   0  0  0  0  0  0  0  0  0  0  0  0
  -12.6445  -23.5002   29.6297 S   0  0  0  0  0  0  0  0  0  0  0  0
  -10.0904  -25.0706   28.8561 C   0  0  0  0  0  0  0  0  0  0  0  0
  -10.8380  -26.0910   29.4244 N   0  0  0  0  0  0  0  0  0  0  0  0
  -10.7899  -27.0779   28.5326 C   0  0  0  0  0  0  0  0  0  0  0  0
  -12.3131  -28.6788   30.4053 H   0  0  0  0  0  0  0  0  0  0  0  0
  -12.3244  -30.1078   29.3581 H   0  0  0  0  0  0  0  0  0  0  0  0
  -13.1710  -28.6414   28.8499 H   0  0  0  0  0  0  0  0  0  0  0  0
  -10.2164  -30.4251   28.2854 H   0  0  0  0  0  0  0  0  0  0  0  0
   -8.1301  -29.6466   27.3027 H   0  0  0  0  0  0  0  0  0  0  0  0
   -7.8315  -27.2024   26.8066 H   0  0  0  0  0  0  0  0  0  0  0  0
  -12.1930  -22.6450   26.0237 H   0  0  0  0  0  0  0  0  0  0  0  0
  -13.6441  -23.2858   26.7773 H   0  0  0  0  0  0  0  0  0  0  0  0
  -10.7965  -21.0326   27.8129 H   0  0  0  0  0  0  0  0  0  0  0  0
  -11.7552  -22.4015   31.6414 H   0  0  0  0  0  0  0  0  0  0  0  0
   -9.9278  -24.1405   29.3808 H   0  0  0  0  0  0  0  0  0  0  0  0
  1  2  1  0
  2  3  2  0
  3  4  1  0
  4  5  2  0
  5  6  1  0
  6  7  1  0
  7  8  1  0
  8  9  2  0
  8 10  1  0
 10 11  1  0
 11 12  1  0
 12 13  2  0
 13 14  1  0
 14 15  2  0
 15 16  1  0
  7 17  2  0
 17 18  1  0
 18 19  2  0
 19  2  1  0
 19  6  1  0
 16 12  1  0
  1 20  1  0
  1 21  1  0
  1 22  1  0
  3 23  1  0
  4 24  1  0
  5 25  1  0
 11 26  1  0
 11 27  1  0
 13 28  1  0
 15 29  1  0
 17 30  1  0
M  END
>  <Energy>  (490) 
75.953744868492876

>  <compound_id>  (490) 
5518

>  <target_id>  (490) 
1

>  <reference_id>  (490) 
88

>  <inspiration_ids>  (490) 
[45, 88]

>  <energy_score>  (490) 
-11.776114790824238

>  <distance_score>  (490) 
2.966669417897615

>  <path>  (490) 
/opt/xchem-fragalysis-2/maxwin/BulkDock/SCRATCH/511018/C5518-P88/C5518-P88.minimised.mol

>  <scratch_subdir>  (490) 
/opt/xchem-fragalysis-2/maxwin/BulkDock/SCRATCH/511018/C5518-P88

>  <fragmenstein_runtime>  (490) 
2.535560369491577

>  <fragmenstein_outcome>  (490) 
too moved

>  <fragmenstein_mode>  (490) 
expansion

>  <fragmenstein_error>  (490) 


$$$$
C5519-P45
     RDKit          3D

 30 32  0  0  0  0  0  0  0  0999 V2000
   -9.0091  -30.1232   26.4851 C   0  0  0  0  0  0  0  0  0  0  0  0
   -8.4430  -28.8222   26.9425 C   0  0  0  0  0  0  0  0  0  0  0  0
   -7.1140  -28.4598   26.4431 C   0  0  0  0  0  0  0  0  0  0  0  0
   -6.7726  -27.1616   26.4790 C   0  0  0  0  0  0  0  0  0  0  0  0
   -7.6688  -26.2905   27.0613 N   0  0  0  0  0  0  0  0  0  0  0  0
   -8.2326  -25.0572   26.7580 C   0  0  0  0  0  0  0  0  0  0  0  0
   -9.4728  -24.9947   25.9694 C   0  0  0  0  0  0  0  0  0  0  0  0
   -9.6293  -24.6307   24.8207 O   0  0  0  0  0  0  0  0  0  0  0  0
  -10.5297  -25.4538   26.6833 O   0  0  0  0  0  0  0  0  0  0  0  0
  -11.6861  -24.6409   26.5897 C   0  0  0  0  0  0  0  0  0  0  0  0
  -11.6858  -23.8558   27.8468 C   0  0  0  0  0  0  0  0  0  0  0  0
  -11.5811  -22.4977   28.0195 C   0  0  0  0  0  0  0  0  0  0  0  0
  -11.5652  -22.0422   29.3171 N   0  0  0  0  0  0  0  0  0  0  0  0
  -11.6098  -23.0705   30.1255 C   0  0  0  0  0  0  0  0  0  0  0  0
  -11.7074  -24.6033   29.3772 S   0  0  0  0  0  0  0  0  0  0  0  0
   -8.2315  -24.6128   28.0774 C   0  0  0  0  0  0  0  0  0  0  0  0
   -8.7382  -25.6719   28.8248 N   0  0  0  0  0  0  0  0  0  0  0  0
   -8.5692  -26.7064   28.0126 C   0  0  0  0  0  0  0  0  0  0  0  0
   -9.1180  -27.9817   27.7635 C   0  0  0  0  0  0  0  0  0  0  0  0
   -8.5525  -30.9594   27.0140 H   0  0  0  0  0  0  0  0  0  0  0  0
  -10.0823  -30.1797   26.6918 H   0  0  0  0  0  0  0  0  0  0  0  0
   -8.8647  -30.2618   25.4091 H   0  0  0  0  0  0  0  0  0  0  0  0
   -6.4897  -29.2093   25.9710 H   0  0  0  0  0  0  0  0  0  0  0  0
   -5.8605  -26.7624   26.0690 H   0  0  0  0  0  0  0  0  0  0  0  0
  -11.7093  -23.9936   25.7059 H   0  0  0  0  0  0  0  0  0  0  0  0
  -12.5413  -25.3137   26.5279 H   0  0  0  0  0  0  0  0  0  0  0  0
  -11.5069  -21.7920   27.2075 H   0  0  0  0  0  0  0  0  0  0  0  0
  -11.5595  -22.9495   31.1990 H   0  0  0  0  0  0  0  0  0  0  0  0
   -8.3255  -23.5934   28.4177 H   0  0  0  0  0  0  0  0  0  0  0  0
  -10.1083  -28.1989   28.1419 H   0  0  0  0  0  0  0  0  0  0  0  0
  1  2  1  0
  2  3  1  0
  3  4  2  0
  4  5  1  0
  5  6  1  0
  6  7  1  0
  7  8  2  0
  7  9  1  0
  9 10  1  0
 10 11  1  0
 11 12  2  0
 12 13  1  0
 13 14  2  0
 14 15  1  0
  6 16  2  0
 16 17  1  0
 17 18  2  0
 18 19  1  0
 19  2  2  0
 18  5  1  0
 15 11  1  0
  1 20  1  0
  1 21  1  0
  1 22  1  0
  3 23  1  0
  4 24  1  0
 10 25  1  0
 10 26  1  0
 12 27  1  0
 14 28  1  0
 16 29  1  0
 19 30  1  0
M  END
>  <Energy>  (491) 
91.514652846547122

>  <compound_id>  (491) 
5519

>  <target_id>  (491) 
1

>  <reference_id>  (491) 
45

>  <inspiration_ids>  (491) 
[45, 88]

>  <energy_score>  (491) 
52.50539877779005

>  <distance_score>  (491) 
1.392346420331386

>  <path>  (491) 
/opt/xchem-fragalysis-2/maxwin/BulkDock/SCRATCH/511018/C5519-P45/C5519-P45.minimised.mol

>  <scratch_subdir>  (491) 
/opt/xchem-fragalysis-2/maxwin/BulkDock/SCRATCH/511018/C5519-P45

>  <fragmenstein_runtime>  (491) 
3.053903579711914

>  <fragmenstein_outcome>  (491) 
too moved

>  <fragmenstein_mode>  (491) 
expansion

>  <fragmenstein_error>  (491) 


$$$$
C5519-P88
     RDKit          3D

 30 32  0  0  0  0  0  0  0  0999 V2000
   -9.6827  -31.0475   27.3253 C   0  0  0  0  0  0  0  0  0  0  0  0
   -9.6504  -29.6424   27.8450 C   0  0  0  0  0  0  0  0  0  0  0  0
   -8.6290  -28.7388   27.3147 C   0  0  0  0  0  0  0  0  0  0  0  0
   -8.8707  -27.4020   27.2946 C   0  0  0  0  0  0  0  0  0  0  0  0
  -10.1094  -26.8767   27.8241 N   0  0  0  0  0  0  0  0  0  0  0  0
  -10.7631  -25.6729   27.8242 C   0  0  0  0  0  0  0  0  0  0  0  0
  -10.6093  -24.5396   26.9994 C   0  0  0  0  0  0  0  0  0  0  0  0
  -10.8935  -24.4706   25.8173 O   0  0  0  0  0  0  0  0  0  0  0  0
  -10.1843  -23.5053   27.7457 O   0  0  0  0  0  0  0  0  0  0  0  0
  -11.1988  -22.5256   27.8617 C   0  0  0  0  0  0  0  0  0  0  0  0
  -11.2317  -22.1425   29.2893 C   0  0  0  0  0  0  0  0  0  0  0  0
  -11.3340  -20.8681   29.7923 C   0  0  0  0  0  0  0  0  0  0  0  0
  -11.4047  -20.7704   31.1608 N   0  0  0  0  0  0  0  0  0  0  0  0
  -11.3195  -21.9687   31.6915 C   0  0  0  0  0  0  0  0  0  0  0  0
  -11.0891  -23.2496   30.5946 S   0  0  0  0  0  0  0  0  0  0  0  0
  -11.7717  -25.8126   28.7453 C   0  0  0  0  0  0  0  0  0  0  0  0
  -11.8367  -27.0605   29.2581 N   0  0  0  0  0  0  0  0  0  0  0  0
  -10.9330  -27.7326   28.5975 C   0  0  0  0  0  0  0  0  0  0  0  0
  -10.7025  -29.1423   28.5332 C   0  0  0  0  0  0  0  0  0  0  0  0
  -10.0175  -31.7500   28.0905 H   0  0  0  0  0  0  0  0  0  0  0  0
  -10.4460  -31.1788   26.5587 H   0  0  0  0  0  0  0  0  0  0  0  0
   -8.7260  -31.3714   26.9052 H   0  0  0  0  0  0  0  0  0  0  0  0
   -7.8283  -29.1375   26.7172 H   0  0  0  0  0  0  0  0  0  0  0  0
   -8.1674  -26.7480   26.8801 H   0  0  0  0  0  0  0  0  0  0  0  0
  -10.9435  -21.6648   27.2497 H   0  0  0  0  0  0  0  0  0  0  0  0
  -12.1855  -22.8884   27.5480 H   0  0  0  0  0  0  0  0  0  0  0  0
  -11.3578  -19.9624   29.1996 H   0  0  0  0  0  0  0  0  0  0  0  0
  -11.3825  -22.1304   32.7601 H   0  0  0  0  0  0  0  0  0  0  0  0
  -12.5295  -25.0850   29.0054 H   0  0  0  0  0  0  0  0  0  0  0  0
  -11.5056  -29.7837   28.8830 H   0  0  0  0  0  0  0  0  0  0  0  0
  1  2  1  0
  2  3  1  0
  3  4  2  0
  4  5  1  0
  5  6  1  0
  6  7  1  0
  7  8  2  0
  7  9  1  0
  9 10  1  0
 10 11  1  0
 11 12  2  0
 12 13  1  0
 13 14  2  0
 14 15  1  0
  6 16  2  0
 16 17  1  0
 17 18  2  0
 18 19  1  0
 19  2  2  0
 18  5  1  0
 15 11  1  0
  1 20  1  0
  1 21  1  0
  1 22  1  0
  3 23  1  0
  4 24  1  0
 10 25  1  0
 10 26  1  0
 12 27  1  0
 14 28  1  0
 16 29  1  0
 19 30  1  0
M  END
>  <Energy>  (492) 
34.882079625402923

>  <compound_id>  (492) 
5519

>  <target_id>  (492) 
1

>  <reference_id>  (492) 
88

>  <inspiration_ids>  (492) 
[45, 88]

>  <energy_score>  (492) 
-4.127174443354818

>  <distance_score>  (492) 
3.3870493114932327

>  <path>  (492) 
/opt/xchem-fragalysis-2/maxwin/BulkDock/SCRATCH/511018/C5519-P88/C5519-P88.minimised.mol

>  <scratch_subdir>  (492) 
/opt/xchem-fragalysis-2/maxwin/BulkDock/SCRATCH/511018/C5519-P88

>  <fragmenstein_runtime>  (492) 
2.84212589263916

>  <fragmenstein_outcome>  (492) 
too moved

>  <fragmenstein_mode>  (492) 
expansion

>  <fragmenstein_error>  (492) 


$$$$
C5520-P45
     RDKit          3D

 38 40  0  0  0  0  0  0  0  0999 V2000
   -8.7612  -24.8231   25.1908 O   0  0  0  0  0  0  0  0  0  0  0  0
   -8.8155  -24.6003   26.3212 C   0  0  0  0  0  0  0  0  0  0  0  0
   -7.5758  -24.1361   27.1282 C   0  0  0  0  0  0  0  0  0  0  0  0
   -7.0583  -25.4165   27.5354 C   0  0  0  0  0  0  0  0  0  0  0  0
   -5.9466  -26.0865   27.0847 C   0  0  0  0  0  0  0  0  0  0  0  0
   -6.4717  -27.3372   26.8514 N   0  0  0  0  0  0  0  0  0  0  0  0
   -5.9525  -28.3531   26.1019 C   0  0  0  0  0  0  0  0  0  0  0  0
   -6.7859  -29.3255   25.7107 C   0  0  0  0  0  0  0  0  0  0  0  0
   -6.4098  -30.2167   24.7740 F   0  0  0  0  0  0  0  0  0  0  0  0
   -8.1526  -29.3757   26.1736 C   0  0  0  0  0  0  0  0  0  0  0  0
   -8.6287  -28.4234   26.9870 C   0  0  0  0  0  0  0  0  0  0  0  0
   -7.7734  -27.3545   27.3399 C   0  0  0  0  0  0  0  0  0  0  0  0
   -8.0093  -26.2727   28.0273 N   0  0  0  0  0  0  0  0  0  0  0  0
   -9.9992  -24.5815   27.2606 N   0  0  0  0  0  0  0  0  0  0  0  0
  -11.4021  -24.7410   26.9985 C   0  0  0  0  0  0  0  0  0  0  0  0
  -11.7831  -25.0292   25.5414 C   0  0  0  0  0  0  0  0  0  0  0  0
  -11.6491  -26.4224   25.2638 O   0  0  0  0  0  0  0  0  0  0  0  0
  -11.9368  -23.3911   27.4195 C   0  0  0  0  0  0  0  0  0  0  0  0
  -11.7471  -23.0859   28.8733 C   0  0  0  0  0  0  0  0  0  0  0  0
  -11.8805  -21.8765   29.5095 C   0  0  0  0  0  0  0  0  0  0  0  0
  -11.6732  -21.8696   30.8675 N   0  0  0  0  0  0  0  0  0  0  0  0
  -11.3314  -23.0686   31.2561 C   0  0  0  0  0  0  0  0  0  0  0  0
  -11.2567  -24.2440   30.0241 S   0  0  0  0  0  0  0  0  0  0  0  0
   -7.8405  -23.4915   27.9691 H   0  0  0  0  0  0  0  0  0  0  0  0
   -6.8935  -23.5910   26.4713 H   0  0  0  0  0  0  0  0  0  0  0  0
   -5.0224  -25.7728   26.6189 H   0  0  0  0  0  0  0  0  0  0  0  0
   -4.9402  -28.2315   25.7535 H   0  0  0  0  0  0  0  0  0  0  0  0
   -8.7574  -30.2120   25.8440 H   0  0  0  0  0  0  0  0  0  0  0  0
   -9.6502  -28.4351   27.3434 H   0  0  0  0  0  0  0  0  0  0  0  0
   -9.6746  -24.4269   28.2102 H   0  0  0  0  0  0  0  0  0  0  0  0
  -11.7676  -25.5604   27.6268 H   0  0  0  0  0  0  0  0  0  0  0  0
  -11.1941  -24.4515   24.8256 H   0  0  0  0  0  0  0  0  0  0  0  0
  -12.8339  -24.7889   25.3595 H   0  0  0  0  0  0  0  0  0  0  0  0
  -10.7161  -26.6341   25.4625 H   0  0  0  0  0  0  0  0  0  0  0  0
  -12.9709  -23.3058   27.1565 H   0  0  0  0  0  0  0  0  0  0  0  0
  -11.4467  -22.5921   26.8534 H   0  0  0  0  0  0  0  0  0  0  0  0
  -12.1503  -20.9515   29.0320 H   0  0  0  0  0  0  0  0  0  0  0  0
  -11.1073  -23.2981   32.2919 H   0  0  0  0  0  0  0  0  0  0  0  0
  1  2  2  0
  2  3  1  0
  3  4  1  0
  4  5  2  0
  5  6  1  0
  6  7  1  0
  7  8  2  0
  8  9  1  0
  8 10  1  0
 10 11  2  0
 11 12  1  0
 12 13  2  0
  2 14  1  0
 14 15  1  0
 15 16  1  0
 16 17  1  0
 15 18  1  0
 18 19  1  0
 19 20  2  0
 20 21  1  0
 21 22  2  0
 22 23  1  0
 13  4  1  0
 23 19  1  0
 12  6  1  0
  3 24  1  0
  3 25  1  0
  5 26  1  0
  7 27  1  0
 10 28  1  0
 11 29  1  0
 14 30  1  0
 15 31  1  0
 16 32  1  0
 16 33  1  0
 17 34  1  0
 18 35  1  0
 18 36  1  0
 20 37  1  0
 22 38  1  0
M  END
>  <Energy>  (493) 
97.905825377650231

>  <compound_id>  (493) 
5520

>  <target_id>  (493) 
1

>  <reference_id>  (493) 
45

>  <inspiration_ids>  (493) 
[45, 88]

>  <energy_score>  (493) 
-14.397357215831448

>  <distance_score>  (493) 
1.5271286114062521

>  <path>  (493) 
/opt/xchem-fragalysis-2/maxwin/BulkDock/SCRATCH/511018/C5520-P45/C5520-P45.minimised.mol

>  <scratch_subdir>  (493) 
/opt/xchem-fragalysis-2/maxwin/BulkDock/SCRATCH/511018/C5520-P45

>  <fragmenstein_runtime>  (493) 
4.042049884796143

>  <fragmenstein_outcome>  (493) 
too moved

>  <fragmenstein_mode>  (493) 
expansion

>  <fragmenstein_error>  (493) 


$$$$
C5520-P88
     RDKit          3D

 38 40  0  0  0  0  0  0  0  0999 V2000
   -8.0056  -22.9406   23.8324 O   0  0  0  0  0  0  0  0  0  0  0  0
   -7.9553  -23.2814   24.9927 C   0  0  0  0  0  0  0  0  0  0  0  0
   -6.1698  -23.9788   25.6551 C   0  0  0  0  0  0  0  0  0  0  0  0
   -6.3978  -25.8315   27.1587 C   0  0  0  0  0  0  0  0  0  0  0  0
   -6.0163  -27.3770   26.7386 C   0  0  0  0  0  0  0  0  0  0  0  0
   -7.1088  -28.1452   26.3228 N   0  0  0  0  0  0  0  0  0  0  0  0
   -7.1031  -29.2727   25.4461 C   0  0  0  0  0  0  0  0  0  0  0  0
   -7.9101  -30.2886   25.7685 C   0  0  0  0  0  0  0  0  0  0  0  0
   -7.8869  -31.4560   25.1009 F   0  0  0  0  0  0  0  0  0  0  0  0
   -8.7654  -30.1569   26.9382 C   0  0  0  0  0  0  0  0  0  0  0  0
   -8.8797  -28.9816   27.6004 C   0  0  0  0  0  0  0  0  0  0  0  0
   -8.1070  -27.8158   27.1835 C   0  0  0  0  0  0  0  0  0  0  0  0
   -7.9940  -26.4882   27.4851 N   0  0  0  0  0  0  0  0  0  0  0  0
   -9.2979  -23.3548   26.1329 N   0  0  0  0  0  0  0  0  0  0  0  0
  -10.7171  -23.1414   25.9404 C   0  0  0  0  0  0  0  0  0  0  0  0
  -11.3886  -24.5650   26.0214 C   0  0  0  0  0  0  0  0  0  0  0  0
  -11.3353  -25.2751   27.2502 O   0  0  0  0  0  0  0  0  0  0  0  0
  -11.3554  -22.3594   27.1182 C   0  0  0  0  0  0  0  0  0  0  0  0
  -10.9635  -22.5019   28.5812 C   0  0  0  0  0  0  0  0  0  0  0  0
  -11.2504  -21.5578   29.5582 C   0  0  0  0  0  0  0  0  0  0  0  0
  -10.9622  -21.9009   30.8623 N   0  0  0  0  0  0  0  0  0  0  0  0
  -10.4053  -23.0876   30.8760 C   0  0  0  0  0  0  0  0  0  0  0  0
  -10.1575  -23.8052   29.3478 S   0  0  0  0  0  0  0  0  0  0  0  0
   -5.6668  -24.0753   24.5957 H   0  0  0  0  0  0  0  0  0  0  0  0
   -5.7216  -22.9288   25.9177 H   0  0  0  0  0  0  0  0  0  0  0  0
   -5.1315  -27.7486   26.3042 H   0  0  0  0  0  0  0  0  0  0  0  0
   -6.3158  -29.3581   24.7114 H   0  0  0  0  0  0  0  0  0  0  0  0
   -9.3536  -31.0228   27.2179 H   0  0  0  0  0  0  0  0  0  0  0  0
   -9.5822  -28.9233   28.4232 H   0  0  0  0  0  0  0  0  0  0  0  0
   -8.9575  -23.5882   27.0351 H   0  0  0  0  0  0  0  0  0  0  0  0
  -10.9198  -22.7126   24.9552 H   0  0  0  0  0  0  0  0  0  0  0  0
  -10.8908  -25.2428   25.3387 H   0  0  0  0  0  0  0  0  0  0  0  0
  -12.4538  -24.4787   25.7853 H   0  0  0  0  0  0  0  0  0  0  0  0
  -10.3900  -25.4216   27.4524 H   0  0  0  0  0  0  0  0  0  0  0  0
  -12.4356  -22.5359   27.0708 H   0  0  0  0  0  0  0  0  0  0  0  0
  -11.2110  -21.2976   26.9312 H   0  0  0  0  0  0  0  0  0  0  0  0
  -11.6862  -20.5867   29.3624 H   0  0  0  0  0  0  0  0  0  0  0  0
  -10.0963  -23.5694   31.7940 H   0  0  0  0  0  0  0  0  0  0  0  0
  1  2  2  0
  2  3  1  0
  3  4  1  0
  4  5  2  0
  5  6  1  0
  6  7  1  0
  7  8  2  0
  8  9  1  0
  8 10  1  0
 10 11  2  0
 11 12  1  0
 12 13  2  0
  2 14  1  0
 14 15  1  0
 15 16  1  0
 16 17  1  0
 15 18  1  0
 18 19  1  0
 19 20  2  0
 20 21  1  0
 21 22  2  0
 22 23  1  0
 13  4  1  0
 23 19  1  0
 12  6  1  0
  3 24  1  0
  3 25  1  0
  5 26  1  0
  7 27  1  0
 10 28  1  0
 11 29  1  0
 14 30  1  0
 15 31  1  0
 16 32  1  0
 16 33  1  0
 17 34  1  0
 18 35  1  0
 18 36  1  0
 20 37  1  0
 22 38  1  0
M  END
>  <Energy>  (494) 
614.44406342235663

>  <compound_id>  (494) 
5520

>  <target_id>  (494) 
1

>  <reference_id>  (494) 
88

>  <inspiration_ids>  (494) 
[45, 88]

>  <energy_score>  (494) 
496.68503472535815

>  <distance_score>  (494) 
2.278762535584336

>  <path>  (494) 
/opt/xchem-fragalysis-2/maxwin/BulkDock/SCRATCH/511018/C5520-P88/C5520-P88.minimised.mol

>  <scratch_subdir>  (494) 
/opt/xchem-fragalysis-2/maxwin/BulkDock/SCRATCH/511018/C5520-P88

>  <fragmenstein_runtime>  (494) 
4.153142690658569

>  <fragmenstein_outcome>  (494) 
too moved

>  <fragmenstein_mode>  (494) 
expansion

>  <fragmenstein_error>  (494) 


$$$$
C5521-P45
     RDKit          3D

 34 36  0  0  0  0  0  0  0  0999 V2000
   -6.4560  -23.6045   27.9549 C   0  0  0  0  0  0  0  0  0  0  0  0
   -6.6727  -24.7201   26.9621 C   0  0  0  0  0  0  0  0  0  0  0  0
   -7.6485  -25.7659   27.3814 C   0  0  0  0  0  0  0  0  0  0  0  0
   -7.9023  -26.9735   26.7669 C   0  0  0  0  0  0  0  0  0  0  0  0
   -9.0585  -27.4311   27.3354 N   0  0  0  0  0  0  0  0  0  0  0  0
  -10.2097  -27.9924   26.7540 C   0  0  0  0  0  0  0  0  0  0  0  0
  -10.9567  -27.1649   25.7134 C   0  0  0  0  0  0  0  0  0  0  0  0
  -11.4016  -27.6268   24.7161 O   0  0  0  0  0  0  0  0  0  0  0  0
  -11.0593  -25.8444   26.2547 N   0  0  0  0  0  0  0  0  0  0  0  0
  -11.8896  -24.5739   25.7665 S   0  0  0  0  0  0  0  0  0  0  0  0
  -11.1308  -23.8913   24.7629 O   0  0  0  0  0  0  0  0  0  0  0  0
  -13.2110  -25.0935   25.5260 O   0  0  0  0  0  0  0  0  0  0  0  0
  -11.8540  -23.6642   27.2833 C   0  0  0  0  0  0  0  0  0  0  0  0
  -11.6127  -22.3597   27.6091 C   0  0  0  0  0  0  0  0  0  0  0  0
  -11.5912  -22.0251   28.9461 N   0  0  0  0  0  0  0  0  0  0  0  0
  -11.7364  -23.1117   29.6549 C   0  0  0  0  0  0  0  0  0  0  0  0
  -11.9247  -24.5493   28.7618 S   0  0  0  0  0  0  0  0  0  0  0  0
  -11.1962  -28.4097   27.5932 C   0  0  0  0  0  0  0  0  0  0  0  0
  -11.1181  -28.0408   29.0040 C   0  0  0  0  0  0  0  0  0  0  0  0
  -10.1521  -27.2139   29.4552 C   0  0  0  0  0  0  0  0  0  0  0  0
   -9.1570  -26.7607   28.5485 C   0  0  0  0  0  0  0  0  0  0  0  0
   -8.4591  -25.6428   28.4931 N   0  0  0  0  0  0  0  0  0  0  0  0
   -5.8018  -22.8392   27.5312 H   0  0  0  0  0  0  0  0  0  0  0  0
   -5.9772  -23.9827   28.8574 H   0  0  0  0  0  0  0  0  0  0  0  0
   -7.4022  -23.1283   28.2238 H   0  0  0  0  0  0  0  0  0  0  0  0
   -7.0459  -24.2585   26.0460 H   0  0  0  0  0  0  0  0  0  0  0  0
   -5.7091  -25.1891   26.7340 H   0  0  0  0  0  0  0  0  0  0  0  0
   -7.4567  -27.4667   25.9192 H   0  0  0  0  0  0  0  0  0  0  0  0
  -10.4863  -25.7810   27.0811 H   0  0  0  0  0  0  0  0  0  0  0  0
  -11.4559  -21.6036   26.8639 H   0  0  0  0  0  0  0  0  0  0  0  0
  -11.7158  -23.0877   30.7351 H   0  0  0  0  0  0  0  0  0  0  0  0
  -12.1979  -28.6514   27.2368 H   0  0  0  0  0  0  0  0  0  0  0  0
  -11.9043  -28.3984   29.6639 H   0  0  0  0  0  0  0  0  0  0  0  0
  -10.1009  -26.8893   30.4881 H   0  0  0  0  0  0  0  0  0  0  0  0
  1  2  1  0
  2  3  1  0
  3  4  2  0
  4  5  1  0
  5  6  1  0
  6  7  1  0
  7  8  2  0
  7  9  1  0
  9 10  1  0
 10 11  2  0
 10 12  2  0
 10 13  1  0
 13 14  2  0
 14 15  1  0
 15 16  2  0
 16 17  1  0
  6 18  2  0
 18 19  1  0
 19 20  2  0
 20 21  1  0
 21 22  2  0
 22  3  1  0
 21  5  1  0
 17 13  1  0
  1 23  1  0
  1 24  1  0
  1 25  1  0
  2 26  1  0
  2 27  1  0
  4 28  1  0
  9 29  1  0
 14 30  1  0
 16 31  1  0
 18 32  1  0
 19 33  1  0
 20 34  1  0
M  END
>  <Energy>  (495) 
-28.784694311506716

>  <compound_id>  (495) 
5521

>  <target_id>  (495) 
1

>  <reference_id>  (495) 
45

>  <inspiration_ids>  (495) 
[45, 88]

>  <energy_score>  (495) 
-12.510495338400744

>  <distance_score>  (495) 
2.7983745099735278

>  <path>  (495) 
/opt/xchem-fragalysis-2/maxwin/BulkDock/SCRATCH/511018/C5521-P45/C5521-P45.minimised.mol

>  <scratch_subdir>  (495) 
/opt/xchem-fragalysis-2/maxwin/BulkDock/SCRATCH/511018/C5521-P45

>  <fragmenstein_runtime>  (495) 
6.45566987991333

>  <fragmenstein_outcome>  (495) 
too moved

>  <fragmenstein_mode>  (495) 
expansion

>  <fragmenstein_error>  (495) 


$$$$
C5521-P88
     RDKit          3D

 34 36  0  0  0  0  0  0  0  0999 V2000
   -9.1877  -24.5080   32.9238 C   0  0  0  0  0  0  0  0  0  0  0  0
  -10.1578  -24.1909   31.7991 C   0  0  0  0  0  0  0  0  0  0  0  0
  -10.8248  -25.3891   31.2102 C   0  0  0  0  0  0  0  0  0  0  0  0
  -11.0672  -25.6618   29.8888 C   0  0  0  0  0  0  0  0  0  0  0  0
  -11.7623  -26.8501   29.8547 N   0  0  0  0  0  0  0  0  0  0  0  0
  -12.3637  -27.5229   28.7969 C   0  0  0  0  0  0  0  0  0  0  0  0
  -12.4830  -26.7867   27.5440 C   0  0  0  0  0  0  0  0  0  0  0  0
  -11.4685  -26.4378   27.0219 O   0  0  0  0  0  0  0  0  0  0  0  0
  -13.8605  -26.5225   27.1975 N   0  0  0  0  0  0  0  0  0  0  0  0
  -14.5046  -25.5727   26.0456 S   0  0  0  0  0  0  0  0  0  0  0  0
  -14.2823  -26.2507   24.7910 O   0  0  0  0  0  0  0  0  0  0  0  0
  -15.8119  -25.1675   26.4997 O   0  0  0  0  0  0  0  0  0  0  0  0
  -13.5254  -24.1124   26.0354 C   0  0  0  0  0  0  0  0  0  0  0  0
  -13.2146  -23.1654   25.0894 C   0  0  0  0  0  0  0  0  0  0  0  0
  -12.0684  -22.4393   25.3528 N   0  0  0  0  0  0  0  0  0  0  0  0
  -11.7038  -22.6480   26.5965 C   0  0  0  0  0  0  0  0  0  0  0  0
  -12.6608  -23.7362   27.4688 S   0  0  0  0  0  0  0  0  0  0  0  0
  -12.8919  -28.7453   28.9797 C   0  0  0  0  0  0  0  0  0  0  0  0
  -12.8467  -29.3137   30.3160 C   0  0  0  0  0  0  0  0  0  0  0  0
  -12.3753  -28.6060   31.3616 C   0  0  0  0  0  0  0  0  0  0  0  0
  -11.8351  -27.3068   31.1518 C   0  0  0  0  0  0  0  0  0  0  0  0
  -11.3069  -26.4322   31.9765 N   0  0  0  0  0  0  0  0  0  0  0  0
   -8.7339  -23.5870   33.3035 H   0  0  0  0  0  0  0  0  0  0  0  0
   -8.3832  -25.1636   32.5835 H   0  0  0  0  0  0  0  0  0  0  0  0
   -9.6880  -25.0060   33.7580 H   0  0  0  0  0  0  0  0  0  0  0  0
  -10.9302  -23.5077   32.1705 H   0  0  0  0  0  0  0  0  0  0  0  0
   -9.6156  -23.6535   31.0112 H   0  0  0  0  0  0  0  0  0  0  0  0
  -10.7737  -25.1244   29.0012 H   0  0  0  0  0  0  0  0  0  0  0  0
  -14.4647  -26.9117   27.9158 H   0  0  0  0  0  0  0  0  0  0  0  0
  -13.6681  -23.0819   24.1124 H   0  0  0  0  0  0  0  0  0  0  0  0
  -10.8847  -22.1303   27.0707 H   0  0  0  0  0  0  0  0  0  0  0  0
  -13.3823  -29.3062   28.1898 H   0  0  0  0  0  0  0  0  0  0  0  0
  -13.2374  -30.3179   30.4606 H   0  0  0  0  0  0  0  0  0  0  0  0
  -12.3597  -29.0183   32.3652 H   0  0  0  0  0  0  0  0  0  0  0  0
  1  2  1  0
  2  3  1  0
  3  4  2  0
  4  5  1  0
  5  6  1  0
  6  7  1  0
  7  8  2  0
  7  9  1  0
  9 10  1  0
 10 11  2  0
 10 12  2  0
 10 13  1  0
 13 14  2  0
 14 15  1  0
 15 16  2  0
 16 17  1  0
  6 18  2  0
 18 19  1  0
 19 20  2  0
 20 21  1  0
 21 22  2  0
 22  3  1  0
 21  5  1  0
 17 13  1  0
  1 23  1  0
  1 24  1  0
  1 25  1  0
  2 26  1  0
  2 27  1  0
  4 28  1  0
  9 29  1  0
 14 30  1  0
 16 31  1  0
 18 32  1  0
 19 33  1  0
 20 34  1  0
M  END
>  <Energy>  (496) 
-77.14325758692533

>  <compound_id>  (496) 
5521

>  <target_id>  (496) 
1

>  <reference_id>  (496) 
88

>  <inspiration_ids>  (496) 
[45, 88]

>  <energy_score>  (496) 
-60.869058613820414

>  <distance_score>  (496) 
5.246341269532088

>  <path>  (496) 
/opt/xchem-fragalysis-2/maxwin/BulkDock/SCRATCH/511018/C5521-P88/C5521-P88.minimised.mol

>  <scratch_subdir>  (496) 
/opt/xchem-fragalysis-2/maxwin/BulkDock/SCRATCH/511018/C5521-P88

>  <fragmenstein_runtime>  (496) 
7.78063178062439

>  <fragmenstein_outcome>  (496) 
too moved

>  <fragmenstein_mode>  (496) 
expansion

>  <fragmenstein_error>  (496) 


$$$$
C5522-P45
     RDKit          3D

 28 30  0  0  0  0  0  0  0  0999 V2000
  -11.7762  -21.6894   31.7522 C   0  0  0  0  0  0  0  0  0  0  0  0
  -11.1774  -22.9886   31.9879 C   0  0  0  0  0  0  0  0  0  0  0  0
  -10.9203  -23.5577   33.2073 C   0  0  0  0  0  0  0  0  0  0  0  0
  -10.0815  -24.6122   33.0839 N   0  0  0  0  0  0  0  0  0  0  0  0
  -10.0521  -24.8716   31.8017 C   0  0  0  0  0  0  0  0  0  0  0  0
   -9.7345  -26.0985   31.1693 C   0  0  0  0  0  0  0  0  0  0  0  0
  -10.0646  -26.2495   29.8782 C   0  0  0  0  0  0  0  0  0  0  0  0
  -10.3198  -25.0801   29.0259 C   0  0  0  0  0  0  0  0  0  0  0  0
   -9.1116  -24.6955   28.1658 C   0  0  0  0  0  0  0  0  0  0  0  0
   -8.7930  -23.5841   28.0391 O   0  0  0  0  0  0  0  0  0  0  0  0
   -8.4405  -25.9892   27.6676 N   0  0  0  0  0  0  0  0  0  0  0  0
   -7.2694  -26.1773   27.0363 C   0  0  0  0  0  0  0  0  0  0  0  0
   -6.2279  -25.2947   26.9239 C   0  0  0  0  0  0  0  0  0  0  0  0
   -5.0063  -25.9058   26.7579 N   0  0  0  0  0  0  0  0  0  0  0  0
   -5.1800  -27.2048   26.6139 C   0  0  0  0  0  0  0  0  0  0  0  0
   -6.8015  -27.7724   26.7160 S   0  0  0  0  0  0  0  0  0  0  0  0
  -10.8967  -24.0056   29.6309 C   0  0  0  0  0  0  0  0  0  0  0  0
  -10.7622  -23.9133   31.0472 N   0  0  0  0  0  0  0  0  0  0  0  0
  -11.1879  -20.9050   32.2381 H   0  0  0  0  0  0  0  0  0  0  0  0
  -12.7894  -21.6459   32.1629 H   0  0  0  0  0  0  0  0  0  0  0  0
  -11.8333  -21.4640   30.6846 H   0  0  0  0  0  0  0  0  0  0  0  0
  -11.2764  -23.2112   34.1678 H   0  0  0  0  0  0  0  0  0  0  0  0
   -9.4578  -26.9377   31.7972 H   0  0  0  0  0  0  0  0  0  0  0  0
  -10.0527  -27.2420   29.4465 H   0  0  0  0  0  0  0  0  0  0  0  0
   -9.0273  -26.7764   27.8832 H   0  0  0  0  0  0  0  0  0  0  0  0
   -6.2677  -24.2269   27.1026 H   0  0  0  0  0  0  0  0  0  0  0  0
   -4.3581  -27.8776   26.4249 H   0  0  0  0  0  0  0  0  0  0  0  0
  -11.0972  -23.0657   29.1274 H   0  0  0  0  0  0  0  0  0  0  0  0
  1  2  1  0
  2  3  2  0
  3  4  1  0
  4  5  2  0
  5  6  1  0
  6  7  2  0
  7  8  1  0
  8  9  1  0
  9 10  2  0
  9 11  1  0
 11 12  1  0
 12 13  2  0
 13 14  1  0
 14 15  2  0
 15 16  1  0
  8 17  2  0
 17 18  1  0
 18  2  1  0
 18  5  1  0
 16 12  1  0
  1 19  1  0
  1 20  1  0
  1 21  1  0
  3 22  1  0
  6 23  1  0
  7 24  1  0
 11 25  1  0
 13 26  1  0
 15 27  1  0
 17 28  1  0
M  END
>  <Energy>  (497) 
85.896900965982283

>  <compound_id>  (497) 
5522

>  <target_id>  (497) 
1

>  <reference_id>  (497) 
45

>  <inspiration_ids>  (497) 
[45, 88]

>  <energy_score>  (497) 
-24.80118215764412

>  <distance_score>  (497) 
2.401147352111796

>  <path>  (497) 
/opt/xchem-fragalysis-2/maxwin/BulkDock/SCRATCH/511018/C5522-P45/C5522-P45.minimised.mol

>  <scratch_subdir>  (497) 
/opt/xchem-fragalysis-2/maxwin/BulkDock/SCRATCH/511018/C5522-P45

>  <fragmenstein_runtime>  (497) 
12.61350393295288

>  <fragmenstein_outcome>  (497) 
too moved

>  <fragmenstein_mode>  (497) 
expansion

>  <fragmenstein_error>  (497) 


$$$$
C5522-P88
     RDKit          3D

 28 30  0  0  0  0  0  0  0  0999 V2000
   -9.4628  -23.2290   33.9088 C   0  0  0  0  0  0  0  0  0  0  0  0
  -10.3334  -22.2180   33.2748 C   0  0  0  0  0  0  0  0  0  0  0  0
  -11.0319  -21.1564   33.8063 C   0  0  0  0  0  0  0  0  0  0  0  0
  -11.5436  -20.3549   32.8226 N   0  0  0  0  0  0  0  0  0  0  0  0
  -11.2816  -20.9703   31.6996 C   0  0  0  0  0  0  0  0  0  0  0  0
  -11.5430  -20.6141   30.3525 C   0  0  0  0  0  0  0  0  0  0  0  0
  -11.3706  -21.5162   29.3754 C   0  0  0  0  0  0  0  0  0  0  0  0
  -10.8772  -22.8128   29.7067 C   0  0  0  0  0  0  0  0  0  0  0  0
  -10.7244  -23.8654   28.7253 C   0  0  0  0  0  0  0  0  0  0  0  0
  -10.1299  -23.7362   27.7360 O   0  0  0  0  0  0  0  0  0  0  0  0
  -11.3957  -25.1093   29.3298 N   0  0  0  0  0  0  0  0  0  0  0  0
  -11.3944  -26.3721   28.9228 C   0  0  0  0  0  0  0  0  0  0  0  0
  -10.6009  -26.8100   27.9204 C   0  0  0  0  0  0  0  0  0  0  0  0
  -10.3641  -28.1780   27.9755 N   0  0  0  0  0  0  0  0  0  0  0  0
  -11.1613  -28.7250   28.8565 C   0  0  0  0  0  0  0  0  0  0  0  0
  -12.0371  -27.6181   29.8268 S   0  0  0  0  0  0  0  0  0  0  0  0
  -10.4026  -23.0853   30.9328 C   0  0  0  0  0  0  0  0  0  0  0  0
  -10.6261  -22.1641   31.9310 N   0  0  0  0  0  0  0  0  0  0  0  0
   -9.8013  -24.2447   33.6852 H   0  0  0  0  0  0  0  0  0  0  0  0
   -9.4526  -23.1073   34.9960 H   0  0  0  0  0  0  0  0  0  0  0  0
   -8.4330  -23.1240   33.5516 H   0  0  0  0  0  0  0  0  0  0  0  0
  -11.1457  -20.8875   34.8499 H   0  0  0  0  0  0  0  0  0  0  0  0
  -11.8344  -19.6063   30.1286 H   0  0  0  0  0  0  0  0  0  0  0  0
  -11.5058  -21.2570   28.3296 H   0  0  0  0  0  0  0  0  0  0  0  0
  -11.7583  -24.8853   30.2478 H   0  0  0  0  0  0  0  0  0  0  0  0
  -10.0400  -26.1945   27.2279 H   0  0  0  0  0  0  0  0  0  0  0  0
  -11.2656  -29.7951   28.9627 H   0  0  0  0  0  0  0  0  0  0  0  0
   -9.9037  -24.0038   31.2159 H   0  0  0  0  0  0  0  0  0  0  0  0
  1  2  1  0
  2  3  2  0
  3  4  1  0
  4  5  2  0
  5  6  1  0
  6  7  2  0
  7  8  1  0
  8  9  1  0
  9 10  2  0
  9 11  1  0
 11 12  1  0
 12 13  2  0
 13 14  1  0
 14 15  2  0
 15 16  1  0
  8 17  2  0
 17 18  1  0
 18  2  1  0
 18  5  1  0
 16 12  1  0
  1 19  1  0
  1 20  1  0
  1 21  1  0
  3 22  1  0
  6 23  1  0
  7 24  1  0
 11 25  1  0
 13 26  1  0
 15 27  1  0
 17 28  1  0
M  END
>  <Energy>  (498) 
54.170818108901152

>  <compound_id>  (498) 
5522

>  <target_id>  (498) 
1

>  <reference_id>  (498) 
88

>  <inspiration_ids>  (498) 
[45, 88]

>  <energy_score>  (498) 
-56.52726501472455

>  <distance_score>  (498) 
3.4394215042419236

>  <path>  (498) 
/opt/xchem-fragalysis-2/maxwin/BulkDock/SCRATCH/511018/C5522-P88/C5522-P88.minimised.mol

>  <scratch_subdir>  (498) 
/opt/xchem-fragalysis-2/maxwin/BulkDock/SCRATCH/511018/C5522-P88

>  <fragmenstein_runtime>  (498) 
10.059081792831421

>  <fragmenstein_outcome>  (498) 
too moved

>  <fragmenstein_mode>  (498) 
expansion

>  <fragmenstein_error>  (498) 


$$$$
C5523-P45
     RDKit          3D

 28 30  0  0  0  0  0  0  0  0999 V2000
  -12.1058  -21.2860   33.2337 C   0  0  0  0  0  0  0  0  0  0  0  0
  -11.6346  -22.1941   32.1743 C   0  0  0  0  0  0  0  0  0  0  0  0
  -11.8723  -22.2512   30.8083 C   0  0  0  0  0  0  0  0  0  0  0  0
  -11.2659  -23.4072   30.3657 N   0  0  0  0  0  0  0  0  0  0  0  0
  -11.1532  -23.9702   29.0803 C   0  0  0  0  0  0  0  0  0  0  0  0
  -10.4580  -25.1196   28.9700 C   0  0  0  0  0  0  0  0  0  0  0  0
   -9.8893  -25.7448   27.7394 C   0  0  0  0  0  0  0  0  0  0  0  0
  -10.4482  -26.3994   26.9537 O   0  0  0  0  0  0  0  0  0  0  0  0
   -8.3843  -25.3794   27.8576 N   0  0  0  0  0  0  0  0  0  0  0  0
   -7.3199  -25.7969   27.1346 C   0  0  0  0  0  0  0  0  0  0  0  0
   -6.0870  -25.1945   27.0909 C   0  0  0  0  0  0  0  0  0  0  0  0
   -5.0405  -26.0456   26.8377 N   0  0  0  0  0  0  0  0  0  0  0  0
   -5.5044  -27.2559   26.6024 C   0  0  0  0  0  0  0  0  0  0  0  0
   -7.2116  -27.4480   26.7225 S   0  0  0  0  0  0  0  0  0  0  0  0
   -9.9326  -25.7654   30.1811 C   0  0  0  0  0  0  0  0  0  0  0  0
   -9.8945  -25.1503   31.3684 C   0  0  0  0  0  0  0  0  0  0  0  0
  -10.6270  -23.9426   31.4987 C   0  0  0  0  0  0  0  0  0  0  0  0
  -10.8502  -23.2355   32.5688 N   0  0  0  0  0  0  0  0  0  0  0  0
  -12.0156  -21.7495   34.2202 H   0  0  0  0  0  0  0  0  0  0  0  0
  -11.5292  -20.3577   33.2365 H   0  0  0  0  0  0  0  0  0  0  0  0
  -13.1664  -21.0602   33.0960 H   0  0  0  0  0  0  0  0  0  0  0  0
  -12.4356  -21.6345   30.1296 H   0  0  0  0  0  0  0  0  0  0  0  0
  -11.5472  -23.4066   28.2437 H   0  0  0  0  0  0  0  0  0  0  0  0
   -8.2537  -24.7207   28.6165 H   0  0  0  0  0  0  0  0  0  0  0  0
   -5.8702  -24.1682   27.3592 H   0  0  0  0  0  0  0  0  0  0  0  0
   -4.8504  -28.0751   26.3396 H   0  0  0  0  0  0  0  0  0  0  0  0
   -9.5376  -26.7736   30.0867 H   0  0  0  0  0  0  0  0  0  0  0  0
   -9.4795  -25.6195   32.2569 H   0  0  0  0  0  0  0  0  0  0  0  0
  1  2  1  0
  2  3  2  0
  3  4  1  0
  4  5  1  0
  5  6  2  0
  6  7  1  0
  7  8  2  0
  7  9  1  0
  9 10  1  0
 10 11  2  0
 11 12  1  0
 12 13  2  0
 13 14  1  0
  6 15  1  0
 15 16  2  0
 16 17  1  0
 17 18  2  0
 18  2  1  0
 17  4  1  0
 14 10  1  0
  1 19  1  0
  1 20  1  0
  1 21  1  0
  3 22  1  0
  5 23  1  0
  9 24  1  0
 11 25  1  0
 13 26  1  0
 15 27  1  0
 16 28  1  0
M  END
>  <Energy>  (499) 
66.506737334571753

>  <compound_id>  (499) 
5523

>  <target_id>  (499) 
1

>  <reference_id>  (499) 
45

>  <inspiration_ids>  (499) 
[45, 88]

>  <energy_score>  (499) 
-5.791503543868629

>  <distance_score>  (499) 
1.8154288119795627

>  <path>  (499) 
/opt/xchem-fragalysis-2/maxwin/BulkDock/SCRATCH/511018/C5523-P45/C5523-P45.minimised.mol

>  <scratch_subdir>  (499) 
/opt/xchem-fragalysis-2/maxwin/BulkDock/SCRATCH/511018/C5523-P45

>  <fragmenstein_runtime>  (499) 
9.478413343429565

>  <fragmenstein_outcome>  (499) 
too moved

>  <fragmenstein_mode>  (499) 
expansion

>  <fragmenstein_error>  (499) 


$$$$
C5523-P88
     RDKit          3D

 28 30  0  0  0  0  0  0  0  0999 V2000
  -11.9285  -20.3638   34.2948 C   0  0  0  0  0  0  0  0  0  0  0  0
  -11.4862  -21.0009   33.0563 C   0  0  0  0  0  0  0  0  0  0  0  0
  -12.1619  -21.1589   31.8648 C   0  0  0  0  0  0  0  0  0  0  0  0
  -11.4272  -22.0758   31.1669 N   0  0  0  0  0  0  0  0  0  0  0  0
  -11.7836  -22.8488   30.0666 C   0  0  0  0  0  0  0  0  0  0  0  0
  -10.9428  -23.8255   29.7017 C   0  0  0  0  0  0  0  0  0  0  0  0
  -11.4710  -25.0903   29.1218 C   0  0  0  0  0  0  0  0  0  0  0  0
  -12.5304  -25.5331   29.3074 O   0  0  0  0  0  0  0  0  0  0  0  0
  -10.2730  -25.6635   28.3510 N   0  0  0  0  0  0  0  0  0  0  0  0
  -10.1032  -26.8603   27.7674 C   0  0  0  0  0  0  0  0  0  0  0  0
   -8.8718  -27.3471   27.2800 C   0  0  0  0  0  0  0  0  0  0  0  0
   -8.6868  -28.7282   27.3641 N   0  0  0  0  0  0  0  0  0  0  0  0
   -9.6713  -29.2912   28.0289 C   0  0  0  0  0  0  0  0  0  0  0  0
  -11.0180  -28.2261   28.3918 S   0  0  0  0  0  0  0  0  0  0  0  0
   -9.6440  -23.9524   30.3985 C   0  0  0  0  0  0  0  0  0  0  0  0
   -9.3337  -23.2171   31.4667 C   0  0  0  0  0  0  0  0  0  0  0  0
  -10.2731  -22.2811   31.9130 C   0  0  0  0  0  0  0  0  0  0  0  0
  -10.2714  -21.6115   33.0287 N   0  0  0  0  0  0  0  0  0  0  0  0
  -11.3275  -20.7055   35.1391 H   0  0  0  0  0  0  0  0  0  0  0  0
  -11.8379  -19.2761   34.2194 H   0  0  0  0  0  0  0  0  0  0  0  0
  -12.9742  -20.6059   34.5090 H   0  0  0  0  0  0  0  0  0  0  0  0
  -13.1489  -20.8475   31.5612 H   0  0  0  0  0  0  0  0  0  0  0  0
  -12.8045  -22.7744   29.7300 H   0  0  0  0  0  0  0  0  0  0  0  0
   -9.5326  -24.9763   28.3186 H   0  0  0  0  0  0  0  0  0  0  0  0
   -7.9908  -26.8047   27.0507 H   0  0  0  0  0  0  0  0  0  0  0  0
   -9.7297  -30.3505   28.2221 H   0  0  0  0  0  0  0  0  0  0  0  0
   -8.9294  -24.7253   30.1435 H   0  0  0  0  0  0  0  0  0  0  0  0
   -8.4159  -23.3462   32.0299 H   0  0  0  0  0  0  0  0  0  0  0  0
  1  2  1  0
  2  3  2  0
  3  4  1  0
  4  5  1  0
  5  6  2  0
  6  7  1  0
  7  8  2  0
  7  9  1  0
  9 10  1  0
 10 11  2  0
 11 12  1  0
 12 13  2  0
 13 14  1  0
  6 15  1  0
 15 16  2  0
 16 17  1  0
 17 18  2  0
 18  2  1  0
 17  4  1  0
 14 10  1  0
  1 19  1  0
  1 20  1  0
  1 21  1  0
  3 22  1  0
  5 23  1  0
  9 24  1  0
 11 25  1  0
 13 26  1  0
 15 27  1  0
 16 28  1  0
M  END
>  <Energy>  (500) 
75.4156027684121

>  <compound_id>  (500) 
5523

>  <target_id>  (500) 
1

>  <reference_id>  (500) 
88

>  <inspiration_ids>  (500) 
[45, 88]

>  <energy_score>  (500) 
3.117361889971505

>  <distance_score>  (500) 
2.8070385901519654

>  <path>  (500) 
/opt/xchem-fragalysis-2/maxwin/BulkDock/SCRATCH/511018/C5523-P88/C5523-P88.minimised.mol

>  <scratch_subdir>  (500) 
/opt/xchem-fragalysis-2/maxwin/BulkDock/SCRATCH/511018/C5523-P88

>  <fragmenstein_runtime>  (500) 
11.009058952331543

>  <fragmenstein_outcome>  (500) 
too moved

>  <fragmenstein_mode>  (500) 
expansion

>  <fragmenstein_error>  (500) 


$$$$
C5524-P45
     RDKit          3D

 28 30  0  0  0  0  0  0  0  0999 V2000
  -10.3644  -26.3765   26.6886 O   0  0  0  0  0  0  0  0  0  0  0  0
   -9.8446  -25.7634   27.5325 C   0  0  0  0  0  0  0  0  0  0  0  0
   -8.3440  -25.4172   27.7485 N   0  0  0  0  0  0  0  0  0  0  0  0
   -7.2464  -25.8109   27.0665 C   0  0  0  0  0  0  0  0  0  0  0  0
   -6.0233  -25.1882   27.0744 C   0  0  0  0  0  0  0  0  0  0  0  0
   -4.9536  -26.0192   26.8574 N   0  0  0  0  0  0  0  0  0  0  0  0
   -5.3856  -27.2395   26.6140 C   0  0  0  0  0  0  0  0  0  0  0  0
   -7.0906  -27.4682   26.6901 S   0  0  0  0  0  0  0  0  0  0  0  0
  -10.4645  -25.1857   28.7602 C   0  0  0  0  0  0  0  0  0  0  0  0
   -9.9770  -25.9001   29.9478 C   0  0  0  0  0  0  0  0  0  0  0  0
   -9.8776  -25.3092   31.1408 C   0  0  0  0  0  0  0  0  0  0  0  0
  -10.5648  -24.0830   31.3104 C   0  0  0  0  0  0  0  0  0  0  0  0
  -10.7590  -23.4198   32.4097 N   0  0  0  0  0  0  0  0  0  0  0  0
  -11.5564  -22.3498   32.0823 C   0  0  0  0  0  0  0  0  0  0  0  0
  -12.0051  -21.4650   33.1961 C   0  0  0  0  0  0  0  0  0  0  0  0
  -11.8086  -22.0364   34.4034 F   0  0  0  0  0  0  0  0  0  0  0  0
  -11.3332  -20.2852   33.1924 F   0  0  0  0  0  0  0  0  0  0  0  0
  -13.3256  -21.1577   33.0953 F   0  0  0  0  0  0  0  0  0  0  0  0
  -11.8175  -22.3588   30.7114 C   0  0  0  0  0  0  0  0  0  0  0  0
  -11.2245  -23.5018   30.2126 N   0  0  0  0  0  0  0  0  0  0  0  0
  -11.1270  -24.0206   28.9078 C   0  0  0  0  0  0  0  0  0  0  0  0
   -8.2503  -24.7949   28.5425 H   0  0  0  0  0  0  0  0  0  0  0  0
   -5.8357  -24.1575   27.3476 H   0  0  0  0  0  0  0  0  0  0  0  0
   -4.7075  -28.0463   26.3754 H   0  0  0  0  0  0  0  0  0  0  0  0
   -9.6079  -26.9151   29.8159 H   0  0  0  0  0  0  0  0  0  0  0  0
   -9.4601  -25.8124   32.0101 H   0  0  0  0  0  0  0  0  0  0  0  0
  -12.3924  -21.7090   30.0719 H   0  0  0  0  0  0  0  0  0  0  0  0
  -11.4897  -23.4101   28.0898 H   0  0  0  0  0  0  0  0  0  0  0  0
  1  2  2  0
  2  3  1  0
  3  4  1  0
  4  5  2  0
  5  6  1  0
  6  7  2  0
  7  8  1  0
  2  9  1  0
  9 10  1  0
 10 11  2  0
 11 12  1  0
 12 13  2  0
 13 14  1  0
 14 15  1  0
 15 16  1  0
 15 17  1  0
 15 18  1  0
 14 19  2  0
 19 20  1  0
 20 21  1  0
  8  4  1  0
 21  9  2  0
 20 12  1  0
  3 22  1  0
  5 23  1  0
  7 24  1  0
 10 25  1  0
 11 26  1  0
 19 27  1  0
 21 28  1  0
M  END
>  <Energy>  (501) 
133.6631300091544

>  <compound_id>  (501) 
5524

>  <target_id>  (501) 
1

>  <reference_id>  (501) 
45

>  <inspiration_ids>  (501) 
[45, 88]

>  <energy_score>  (501) 
-61.95349174509698

>  <distance_score>  (501) 
1.757284346481231

>  <path>  (501) 
/opt/xchem-fragalysis-2/maxwin/BulkDock/SCRATCH/511018/C5524-P45/C5524-P45.minimised.mol

>  <scratch_subdir>  (501) 
/opt/xchem-fragalysis-2/maxwin/BulkDock/SCRATCH/511018/C5524-P45

>  <fragmenstein_runtime>  (501) 
19.52710723876953

>  <fragmenstein_outcome>  (501) 
too moved

>  <fragmenstein_mode>  (501) 
expansion

>  <fragmenstein_error>  (501) 


$$$$
C5524-P88
     RDKit          3D

 28 30  0  0  0  0  0  0  0  0999 V2000
  -10.1357  -26.1305   27.3349 O   0  0  0  0  0  0  0  0  0  0  0  0
  -10.7709  -26.7701   28.0903 C   0  0  0  0  0  0  0  0  0  0  0  0
  -10.7133  -28.3201   28.4242 N   0  0  0  0  0  0  0  0  0  0  0  0
   -9.8454  -29.2977   27.9838 C   0  0  0  0  0  0  0  0  0  0  0  0
   -8.6303  -29.1365   27.3459 C   0  0  0  0  0  0  0  0  0  0  0  0
   -8.2265  -30.2131   26.5924 N   0  0  0  0  0  0  0  0  0  0  0  0
   -9.0363  -31.2158   26.8026 C   0  0  0  0  0  0  0  0  0  0  0  0
  -10.4354  -30.8615   27.7496 S   0  0  0  0  0  0  0  0  0  0  0  0
  -11.7501  -26.0399   28.9890 C   0  0  0  0  0  0  0  0  0  0  0  0
  -12.0528  -26.6844   30.2495 C   0  0  0  0  0  0  0  0  0  0  0  0
  -11.5095  -26.1958   31.3649 C   0  0  0  0  0  0  0  0  0  0  0  0
  -11.0262  -24.8598   31.3648 C   0  0  0  0  0  0  0  0  0  0  0  0
  -10.5378  -24.1613   32.3531 N   0  0  0  0  0  0  0  0  0  0  0  0
  -10.6672  -22.8427   31.9678 C   0  0  0  0  0  0  0  0  0  0  0  0
  -10.4778  -21.7682   32.9999 C   0  0  0  0  0  0  0  0  0  0  0  0
   -9.4432  -22.0612   33.8332 F   0  0  0  0  0  0  0  0  0  0  0  0
  -10.2271  -20.5592   32.4371 F   0  0  0  0  0  0  0  0  0  0  0  0
  -11.5754  -21.6088   33.7791 F   0  0  0  0  0  0  0  0  0  0  0  0
  -11.0006  -22.7894   30.6139 C   0  0  0  0  0  0  0  0  0  0  0  0
  -11.2389  -24.0909   30.2309 N   0  0  0  0  0  0  0  0  0  0  0  0
  -11.5486  -24.6878   28.9979 C   0  0  0  0  0  0  0  0  0  0  0  0
  -11.4537  -28.5557   29.0614 H   0  0  0  0  0  0  0  0  0  0  0  0
   -8.0754  -28.2124   27.2479 H   0  0  0  0  0  0  0  0  0  0  0  0
   -8.8749  -32.1947   26.3694 H   0  0  0  0  0  0  0  0  0  0  0  0
  -12.6010  -27.6192   30.2734 H   0  0  0  0  0  0  0  0  0  0  0  0
  -11.5573  -26.7568   32.2896 H   0  0  0  0  0  0  0  0  0  0  0  0
  -11.1496  -21.9574   29.9401 H   0  0  0  0  0  0  0  0  0  0  0  0
  -11.2704  -24.1001   28.1286 H   0  0  0  0  0  0  0  0  0  0  0  0
  1  2  2  0
  2  3  1  0
  3  4  1  0
  4  5  2  0
  5  6  1  0
  6  7  2  0
  7  8  1  0
  2  9  1  0
  9 10  1  0
 10 11  2  0
 11 12  1  0
 12 13  2  0
 13 14  1  0
 14 15  1  0
 15 16  1  0
 15 17  1  0
 15 18  1  0
 14 19  2  0
 19 20  1  0
 20 21  1  0
  8  4  1  0
 21  9  2  0
 20 12  1  0
  3 22  1  0
  5 23  1  0
  7 24  1  0
 10 25  1  0
 11 26  1  0
 19 27  1  0
 21 28  1  0
M  END
>  <Energy>  (502) 
148.13778292992424

>  <compound_id>  (502) 
5524

>  <target_id>  (502) 
1

>  <reference_id>  (502) 
88

>  <inspiration_ids>  (502) 
[45, 88]

>  <energy_score>  (502) 
-47.47883882432882

>  <distance_score>  (502) 
2.9503842211963494

>  <path>  (502) 
/opt/xchem-fragalysis-2/maxwin/BulkDock/SCRATCH/511018/C5524-P88/C5524-P88.minimised.mol

>  <scratch_subdir>  (502) 
/opt/xchem-fragalysis-2/maxwin/BulkDock/SCRATCH/511018/C5524-P88

>  <fragmenstein_runtime>  (502) 
18.680336952209473

>  <fragmenstein_outcome>  (502) 
too moved

>  <fragmenstein_mode>  (502) 
expansion

>  <fragmenstein_error>  (502) 


$$$$
C5525-P45
     RDKit          3D

 38 40  0  0  0  0  0  0  0  0999 V2000
  -13.0461  -26.2096   26.4763 O   0  0  0  0  0  0  0  0  0  0  0  0
  -12.2346  -25.3550   26.6624 C   0  0  0  0  0  0  0  0  0  0  0  0
  -11.3598  -24.7838   25.5872 C   0  0  0  0  0  0  0  0  0  0  0  0
   -9.9075  -25.1213   25.9309 C   0  0  0  0  0  0  0  0  0  0  0  0
   -9.0555  -24.2236   27.3263 S   0  0  0  0  0  0  0  0  0  0  0  0
   -8.7012  -25.4426   28.5613 C   0  0  0  0  0  0  0  0  0  0  0  0
   -8.5196  -26.7516   27.9514 C   0  0  0  0  0  0  0  0  0  0  0  0
   -7.4832  -27.2013   27.1624 C   0  0  0  0  0  0  0  0  0  0  0  0
   -7.9281  -28.3871   26.6650 N   0  0  0  0  0  0  0  0  0  0  0  0
   -7.3475  -29.1979   25.7207 C   0  0  0  0  0  0  0  0  0  0  0  0
   -8.0500  -30.2342   25.2451 C   0  0  0  0  0  0  0  0  0  0  0  0
   -9.2379  -30.6434   25.9653 C   0  0  0  0  0  0  0  0  0  0  0  0
   -9.8068  -29.8486   26.8860 C   0  0  0  0  0  0  0  0  0  0  0  0
   -9.1780  -28.6241   27.2143 C   0  0  0  0  0  0  0  0  0  0  0  0
   -9.5425  -27.6577   28.0216 N   0  0  0  0  0  0  0  0  0  0  0  0
  -11.8310  -24.7104   27.8455 N   0  0  0  0  0  0  0  0  0  0  0  0
  -12.1845  -24.9316   29.1823 C   0  0  0  0  0  0  0  0  0  0  0  0
  -11.9009  -23.6312   29.8523 C   0  0  0  0  0  0  0  0  0  0  0  0
  -11.9823  -22.3614   29.3223 C   0  0  0  0  0  0  0  0  0  0  0  0
  -11.7977  -21.3451   30.2062 N   0  0  0  0  0  0  0  0  0  0  0  0
  -11.5330  -21.8192   31.3961 C   0  0  0  0  0  0  0  0  0  0  0  0
  -11.3181  -23.5021   31.4561 S   0  0  0  0  0  0  0  0  0  0  0  0
  -11.6566  -25.2620   24.6565 H   0  0  0  0  0  0  0  0  0  0  0  0
  -11.5436  -23.7118   25.4795 H   0  0  0  0  0  0  0  0  0  0  0  0
   -9.8761  -26.1911   26.0844 H   0  0  0  0  0  0  0  0  0  0  0  0
   -9.3045  -24.8653   25.0654 H   0  0  0  0  0  0  0  0  0  0  0  0
   -9.4640  -25.4641   29.3369 H   0  0  0  0  0  0  0  0  0  0  0  0
   -7.8039  -25.0738   29.0495 H   0  0  0  0  0  0  0  0  0  0  0  0
   -6.5486  -26.7547   26.8504 H   0  0  0  0  0  0  0  0  0  0  0  0
   -6.3675  -28.9198   25.3696 H   0  0  0  0  0  0  0  0  0  0  0  0
   -7.6714  -30.8696   24.4524 H   0  0  0  0  0  0  0  0  0  0  0  0
   -9.6338  -31.6283   25.7494 H   0  0  0  0  0  0  0  0  0  0  0  0
  -10.6990  -30.1405   27.4239 H   0  0  0  0  0  0  0  0  0  0  0  0
  -11.0522  -24.0904   27.6350 H   0  0  0  0  0  0  0  0  0  0  0  0
  -13.1951  -25.3210   29.2736 H   0  0  0  0  0  0  0  0  0  0  0  0
  -11.5174  -25.7331   29.5052 H   0  0  0  0  0  0  0  0  0  0  0  0
  -12.2075  -22.1277   28.2909 H   0  0  0  0  0  0  0  0  0  0  0  0
  -11.3840  -21.1787   32.2562 H   0  0  0  0  0  0  0  0  0  0  0  0
  1  2  2  0
  2  3  1  0
  3  4  1  0
  4  5  1  0
  5  6  1  0
  6  7  1  0
  7  8  2  0
  8  9  1  0
  9 10  1  0
 10 11  2  0
 11 12  1  0
 12 13  2  0
 13 14  1  0
 14 15  2  0
  2 16  1  0
 16 17  1  0
 17 18  1  0
 18 19  2  0
 19 20  1  0
 20 21  2  0
 21 22  1  0
 15  7  1  0
 22 18  1  0
 14  9  1  0
  3 23  1  0
  3 24  1  0
  4 25  1  0
  4 26  1  0
  6 27  1  0
  6 28  1  0
  8 29  1  0
 10 30  1  0
 11 31  1  0
 12 32  1  0
 13 33  1  0
 16 34  1  0
 17 35  1  0
 17 36  1  0
 19 37  1  0
 21 38  1  0
M  END
>  <Energy>  (503) 
42.879851141687297

>  <compound_id>  (503) 
5525

>  <target_id>  (503) 
1

>  <reference_id>  (503) 
45

>  <inspiration_ids>  (503) 
[45, 88]

>  <energy_score>  (503) 
-67.20418757487784

>  <distance_score>  (503) 
2.6886963872382528

>  <path>  (503) 
/opt/xchem-fragalysis-2/maxwin/BulkDock/SCRATCH/511018/C5525-P45/C5525-P45.minimised.mol

>  <scratch_subdir>  (503) 
/opt/xchem-fragalysis-2/maxwin/BulkDock/SCRATCH/511018/C5525-P45

>  <fragmenstein_runtime>  (503) 
10.105788469314575

>  <fragmenstein_outcome>  (503) 
too moved

>  <fragmenstein_mode>  (503) 
expansion

>  <fragmenstein_error>  (503) 


$$$$
C5525-P88
     RDKit          3D

 38 40  0  0  0  0  0  0  0  0999 V2000
  -15.7879  -24.3794   27.2111 O   0  0  0  0  0  0  0  0  0  0  0  0
  -14.6876  -24.6711   26.9900 C   0  0  0  0  0  0  0  0  0  0  0  0
  -13.9600  -24.4186   25.6866 C   0  0  0  0  0  0  0  0  0  0  0  0
  -13.1488  -23.1253   25.7695 C   0  0  0  0  0  0  0  0  0  0  0  0
  -11.3311  -23.2040   25.5727 S   0  0  0  0  0  0  0  0  0  0  0  0
  -10.7398  -23.3785   27.2690 C   0  0  0  0  0  0  0  0  0  0  0  0
  -10.4052  -24.7971   27.5590 C   0  0  0  0  0  0  0  0  0  0  0  0
   -9.2712  -25.3907   28.0430 C   0  0  0  0  0  0  0  0  0  0  0  0
   -9.3774  -26.6743   27.5161 N   0  0  0  0  0  0  0  0  0  0  0  0
   -8.4628  -27.7551   27.2563 C   0  0  0  0  0  0  0  0  0  0  0  0
   -8.8467  -29.0177   27.5832 C   0  0  0  0  0  0  0  0  0  0  0  0
  -10.1516  -29.2136   28.2506 C   0  0  0  0  0  0  0  0  0  0  0  0
  -11.0363  -28.1918   28.4212 C   0  0  0  0  0  0  0  0  0  0  0  0
  -10.6979  -26.8864   27.9056 C   0  0  0  0  0  0  0  0  0  0  0  0
  -11.3303  -25.8134   27.4834 N   0  0  0  0  0  0  0  0  0  0  0  0
  -13.6210  -25.2727   27.9009 N   0  0  0  0  0  0  0  0  0  0  0  0
  -13.6475  -25.5539   29.2835 C   0  0  0  0  0  0  0  0  0  0  0  0
  -12.5116  -24.7688   29.9125 C   0  0  0  0  0  0  0  0  0  0  0  0
  -12.2818  -23.4029   30.0066 C   0  0  0  0  0  0  0  0  0  0  0  0
  -11.0921  -23.0002   30.5777 N   0  0  0  0  0  0  0  0  0  0  0  0
  -10.4931  -24.0520   31.0778 C   0  0  0  0  0  0  0  0  0  0  0  0
  -11.2980  -25.5461   30.8541 S   0  0  0  0  0  0  0  0  0  0  0  0
  -13.3830  -25.3011   25.3983 H   0  0  0  0  0  0  0  0  0  0  0  0
  -14.7502  -24.2997   24.9564 H   0  0  0  0  0  0  0  0  0  0  0  0
  -13.3399  -22.6186   26.7011 H   0  0  0  0  0  0  0  0  0  0  0  0
  -13.4917  -22.4650   24.9649 H   0  0  0  0  0  0  0  0  0  0  0  0
  -11.4884  -22.9435   27.9091 H   0  0  0  0  0  0  0  0  0  0  0  0
   -9.8435  -22.7689   27.3924 H   0  0  0  0  0  0  0  0  0  0  0  0
   -8.4086  -25.0723   28.5963 H   0  0  0  0  0  0  0  0  0  0  0  0
   -7.4831  -27.5415   26.8679 H   0  0  0  0  0  0  0  0  0  0  0  0
   -8.2472  -29.8920   27.3768 H   0  0  0  0  0  0  0  0  0  0  0  0
  -10.4336  -30.2330   28.4868 H   0  0  0  0  0  0  0  0  0  0  0  0
  -12.0247  -28.3616   28.8286 H   0  0  0  0  0  0  0  0  0  0  0  0
  -12.7363  -25.3243   27.3997 H   0  0  0  0  0  0  0  0  0  0  0  0
  -13.5081  -26.6303   29.4117 H   0  0  0  0  0  0  0  0  0  0  0  0
  -14.6465  -25.3093   29.6343 H   0  0  0  0  0  0  0  0  0  0  0  0
  -12.9396  -22.6352   29.6439 H   0  0  0  0  0  0  0  0  0  0  0  0
   -9.5541  -23.9847   31.6119 H   0  0  0  0  0  0  0  0  0  0  0  0
  1  2  2  0
  2  3  1  0
  3  4  1  0
  4  5  1  0
  5  6  1  0
  6  7  1  0
  7  8  2  0
  8  9  1  0
  9 10  1  0
 10 11  2  0
 11 12  1  0
 12 13  2  0
 13 14  1  0
 14 15  2  0
  2 16  1  0
 16 17  1  0
 17 18  1  0
 18 19  2  0
 19 20  1  0
 20 21  2  0
 21 22  1  0
 15  7  1  0
 22 18  1  0
 14  9  1  0
  3 23  1  0
  3 24  1  0
  4 25  1  0
  4 26  1  0
  6 27  1  0
  6 28  1  0
  8 29  1  0
 10 30  1  0
 11 31  1  0
 12 32  1  0
 13 33  1  0
 16 34  1  0
 17 35  1  0
 17 36  1  0
 19 37  1  0
 21 38  1  0
M  END
>  <Energy>  (504) 
79.476252119455665

>  <compound_id>  (504) 
5525

>  <target_id>  (504) 
1

>  <reference_id>  (504) 
88

>  <inspiration_ids>  (504) 
[45, 88]

>  <energy_score>  (504) 
3.806955077328496

>  <distance_score>  (504) 
3.046633731277918

>  <path>  (504) 
/opt/xchem-fragalysis-2/maxwin/BulkDock/SCRATCH/511018/C5525-P88/C5525-P88.minimised.mol

>  <scratch_subdir>  (504) 
/opt/xchem-fragalysis-2/maxwin/BulkDock/SCRATCH/511018/C5525-P88

>  <fragmenstein_runtime>  (504) 
7.636232137680054

>  <fragmenstein_outcome>  (504) 
too moved

>  <fragmenstein_mode>  (504) 
expansion

>  <fragmenstein_error>  (504) 


$$$$
C5526-P45
     RDKit          3D

 42 46  0  0  0  0  0  0  0  0999 V2000
  -11.5812  -28.5339   27.9251 O   0  0  0  0  0  0  0  0  0  0  0  0
  -11.3933  -27.3595   27.7880 C   0  0  0  0  0  0  0  0  0  0  0  0
  -10.3362  -26.5451   28.2094 N   0  0  0  0  0  0  0  0  0  0  0  0
   -9.1496  -26.8509   28.8254 C   0  0  0  0  0  0  0  0  0  0  0  0
   -8.1703  -27.0263   27.6917 C   0  0  0  0  0  0  0  0  0  0  0  0
   -8.0226  -28.2251   27.0788 C   0  0  0  0  0  0  0  0  0  0  0  0
   -6.8002  -28.5664   26.3764 C   0  0  0  0  0  0  0  0  0  0  0  0
   -5.7738  -27.7019   26.4121 C   0  0  0  0  0  0  0  0  0  0  0  0
   -6.0026  -26.4184   26.8827 N   0  0  0  0  0  0  0  0  0  0  0  0
   -5.1560  -25.3499   26.9968 C   0  0  0  0  0  0  0  0  0  0  0  0
   -5.9382  -24.2976   27.4137 C   0  0  0  0  0  0  0  0  0  0  0  0
   -7.2267  -24.7058   27.6451 N   0  0  0  0  0  0  0  0  0  0  0  0
   -7.2261  -25.9961   27.3721 C   0  0  0  0  0  0  0  0  0  0  0  0
  -12.3402  -26.4759   26.9417 C   0  0  0  0  0  0  0  0  0  0  0  0
  -12.0267  -26.6453   25.4340 C   0  0  0  0  0  0  0  0  0  0  0  0
  -13.2315  -25.9704   24.8346 C   0  0  0  0  0  0  0  0  0  0  0  0
  -12.9036  -24.5414   25.2677 C   0  0  0  0  0  0  0  0  0  0  0  0
  -12.0637  -24.9264   26.5046 C   0  0  0  0  0  0  0  0  0  0  0  0
  -11.8437  -23.9215   27.6734 C   0  0  0  0  0  0  0  0  0  0  0  0
  -11.6469  -22.5749   27.5614 C   0  0  0  0  0  0  0  0  0  0  0  0
  -11.6203  -21.8645   28.7458 N   0  0  0  0  0  0  0  0  0  0  0  0
  -11.7240  -22.6755   29.7622 C   0  0  0  0  0  0  0  0  0  0  0  0
  -11.8517  -24.3133   29.3457 S   0  0  0  0  0  0  0  0  0  0  0  0
  -10.9223  -25.5254   25.6577 C   0  0  0  0  0  0  0  0  0  0  0  0
  -10.5517  -25.5944   27.9909 H   0  0  0  0  0  0  0  0  0  0  0  0
   -8.9157  -25.9723   29.4353 H   0  0  0  0  0  0  0  0  0  0  0  0
   -9.2733  -27.7040   29.4697 H   0  0  0  0  0  0  0  0  0  0  0  0
   -8.7134  -29.0448   27.2625 H   0  0  0  0  0  0  0  0  0  0  0  0
   -6.7137  -29.5527   25.9364 H   0  0  0  0  0  0  0  0  0  0  0  0
   -4.7917  -27.9121   26.0115 H   0  0  0  0  0  0  0  0  0  0  0  0
   -4.1094  -25.4518   26.7557 H   0  0  0  0  0  0  0  0  0  0  0  0
   -5.6372  -23.2748   27.5964 H   0  0  0  0  0  0  0  0  0  0  0  0
  -13.3673  -26.7179   27.2356 H   0  0  0  0  0  0  0  0  0  0  0  0
  -11.7110  -27.6162   25.0715 H   0  0  0  0  0  0  0  0  0  0  0  0
  -14.1781  -26.3379   25.2464 H   0  0  0  0  0  0  0  0  0  0  0  0
  -13.2764  -26.1883   23.7938 H   0  0  0  0  0  0  0  0  0  0  0  0
  -13.7608  -23.8900   25.3649 H   0  0  0  0  0  0  0  0  0  0  0  0
  -12.3018  -23.9927   24.5309 H   0  0  0  0  0  0  0  0  0  0  0  0
  -11.5788  -22.0337   26.6334 H   0  0  0  0  0  0  0  0  0  0  0  0
  -11.7143  -22.3214   30.7847 H   0  0  0  0  0  0  0  0  0  0  0  0
   -9.9871  -25.8281   26.1143 H   0  0  0  0  0  0  0  0  0  0  0  0
  -10.5871  -24.9431   24.7950 H   0  0  0  0  0  0  0  0  0  0  0  0
  1  2  2  0
  2  3  1  0
  3  4  1  0
  4  5  1  0
  5  6  2  0
  6  7  1  0
  7  8  2  0
  8  9  1  0
  9 10  1  0
 10 11  2  0
 11 12  1  0
 12 13  2  0
  2 14  1  0
 14 15  1  0
 15 16  1  0
 16 17  1  0
 17 18  1  0
 18 19  1  0
 19 20  2  0
 20 21  1  0
 21 22  2  0
 22 23  1  0
 18 24  1  0
 13  5  1  0
 18 14  1  0
 23 19  1  0
 13  9  1  0
 24 15  1  0
  3 25  1  0
  4 26  1  0
  4 27  1  0
  6 28  1  0
  7 29  1  0
  8 30  1  0
 10 31  1  0
 11 32  1  0
 14 33  1  0
 15 34  1  0
 16 35  1  0
 16 36  1  0
 17 37  1  0
 17 38  1  0
 20 39  1  0
 22 40  1  0
 24 41  1  0
 24 42  1  0
M  END
>  <Energy>  (505) 
79.701423095033093

>  <compound_id>  (505) 
5526

>  <target_id>  (505) 
1

>  <reference_id>  (505) 
45

>  <inspiration_ids>  (505) 
[45, 88]

>  <energy_score>  (505) 
-34.04838539034972

>  <distance_score>  (505) 
1.1777632246469074

>  <path>  (505) 
/opt/xchem-fragalysis-2/maxwin/BulkDock/SCRATCH/511018/C5526-P45/C5526-P45.minimised.mol

>  <scratch_subdir>  (505) 
/opt/xchem-fragalysis-2/maxwin/BulkDock/SCRATCH/511018/C5526-P45

>  <fragmenstein_runtime>  (505) 
10.440430402755737

>  <fragmenstein_outcome>  (505) 
too moved

>  <fragmenstein_mode>  (505) 
expansion

>  <fragmenstein_error>  (505) 


$$$$
C5526-P88
     RDKit          3D

 42 46  0  0  0  0  0  0  0  0999 V2000
  -14.4935  -28.8751   26.9025 O   0  0  0  0  0  0  0  0  0  0  0  0
  -14.2576  -27.9331   27.5476 C   0  0  0  0  0  0  0  0  0  0  0  0
  -13.2776  -27.7446   28.7030 N   0  0  0  0  0  0  0  0  0  0  0  0
  -12.3058  -28.6421   29.2577 C   0  0  0  0  0  0  0  0  0  0  0  0
  -11.0039  -28.3461   28.5494 C   0  0  0  0  0  0  0  0  0  0  0  0
  -10.1252  -29.3374   28.2222 C   0  0  0  0  0  0  0  0  0  0  0  0
   -8.8493  -29.0835   27.5372 C   0  0  0  0  0  0  0  0  0  0  0  0
   -8.5112  -27.8107   27.2117 C   0  0  0  0  0  0  0  0  0  0  0  0
   -9.4193  -26.7206   27.5590 N   0  0  0  0  0  0  0  0  0  0  0  0
   -9.0355  -25.5183   28.1451 C   0  0  0  0  0  0  0  0  0  0  0  0
  -10.0394  -25.0045   28.8791 C   0  0  0  0  0  0  0  0  0  0  0  0
  -11.0462  -25.9088   28.9074 N   0  0  0  0  0  0  0  0  0  0  0  0
  -10.6414  -26.9673   28.2394 C   0  0  0  0  0  0  0  0  0  0  0  0
  -14.9785  -26.5607   27.2592 C   0  0  0  0  0  0  0  0  0  0  0  0
  -15.5167  -26.5185   25.7693 C   0  0  0  0  0  0  0  0  0  0  0  0
  -16.4529  -25.3295   25.7456 C   0  0  0  0  0  0  0  0  0  0  0  0
  -15.5017  -24.2990   26.3346 C   0  0  0  0  0  0  0  0  0  0  0  0
  -14.3188  -25.2094   26.7304 C   0  0  0  0  0  0  0  0  0  0  0  0
  -13.2535  -24.4273   27.5140 C   0  0  0  0  0  0  0  0  0  0  0  0
  -12.3127  -23.5436   27.0245 C   0  0  0  0  0  0  0  0  0  0  0  0
  -11.6878  -22.7468   27.9874 N   0  0  0  0  0  0  0  0  0  0  0  0
  -12.1821  -23.0204   29.1744 C   0  0  0  0  0  0  0  0  0  0  0  0
  -13.3456  -24.2771   29.1978 S   0  0  0  0  0  0  0  0  0  0  0  0
  -14.0630  -25.9952   25.4476 C   0  0  0  0  0  0  0  0  0  0  0  0
  -13.2686  -26.7664   28.9834 H   0  0  0  0  0  0  0  0  0  0  0  0
  -12.2231  -28.4393   30.3292 H   0  0  0  0  0  0  0  0  0  0  0  0
  -12.6390  -29.6704   29.0902 H   0  0  0  0  0  0  0  0  0  0  0  0
  -10.3695  -30.3795   28.4042 H   0  0  0  0  0  0  0  0  0  0  0  0
   -8.2341  -29.9361   27.2859 H   0  0  0  0  0  0  0  0  0  0  0  0
   -7.5433  -27.5780   26.8029 H   0  0  0  0  0  0  0  0  0  0  0  0
   -8.0058  -25.3996   28.4026 H   0  0  0  0  0  0  0  0  0  0  0  0
   -9.9862  -24.1521   29.5399 H   0  0  0  0  0  0  0  0  0  0  0  0
  -15.7567  -26.3961   28.0190 H   0  0  0  0  0  0  0  0  0  0  0  0
  -15.8588  -27.4419   25.3037 H   0  0  0  0  0  0  0  0  0  0  0  0
  -17.3286  -25.4888   26.3842 H   0  0  0  0  0  0  0  0  0  0  0  0
  -16.8115  -25.0792   24.7485 H   0  0  0  0  0  0  0  0  0  0  0  0
  -15.9629  -23.8102   27.1922 H   0  0  0  0  0  0  0  0  0  0  0  0
  -15.2148  -23.5336   25.6051 H   0  0  0  0  0  0  0  0  0  0  0  0
  -12.0755  -23.3698   25.9824 H   0  0  0  0  0  0  0  0  0  0  0  0
  -11.8721  -22.5028   30.0734 H   0  0  0  0  0  0  0  0  0  0  0  0
  -13.2512  -26.7277   25.4836 H   0  0  0  0  0  0  0  0  0  0  0  0
  -13.9749  -25.4100   24.5357 H   0  0  0  0  0  0  0  0  0  0  0  0
  1  2  2  0
  2  3  1  0
  3  4  1  0
  4  5  1  0
  5  6  2  0
  6  7  1  0
  7  8  2  0
  8  9  1  0
  9 10  1  0
 10 11  2  0
 11 12  1  0
 12 13  2  0
  2 14  1  0
 14 15  1  0
 15 16  1  0
 16 17  1  0
 17 18  1  0
 18 19  1  0
 19 20  2  0
 20 21  1  0
 21 22  2  0
 22 23  1  0
 18 24  1  0
 13  5  1  0
 18 14  1  0
 23 19  1  0
 13  9  1  0
 24 15  1  0
  3 25  1  0
  4 26  1  0
  4 27  1  0
  6 28  1  0
  7 29  1  0
  8 30  1  0
 10 31  1  0
 11 32  1  0
 14 33  1  0
 15 34  1  0
 16 35  1  0
 16 36  1  0
 17 37  1  0
 17 38  1  0
 20 39  1  0
 22 40  1  0
 24 41  1  0
 24 42  1  0
M  END
>  <Energy>  (506) 
94.446627577303545

>  <compound_id>  (506) 
5526

>  <target_id>  (506) 
1

>  <reference_id>  (506) 
88

>  <inspiration_ids>  (506) 
[45, 88]

>  <energy_score>  (506) 
0.08004268709879625

>  <distance_score>  (506) 
3.0875625171182923

>  <path>  (506) 
/opt/xchem-fragalysis-2/maxwin/BulkDock/SCRATCH/511018/C5526-P88/C5526-P88.minimised.mol

>  <scratch_subdir>  (506) 
/opt/xchem-fragalysis-2/maxwin/BulkDock/SCRATCH/511018/C5526-P88

>  <fragmenstein_runtime>  (506) 
6.9078333377838135

>  <fragmenstein_outcome>  (506) 
too moved

>  <fragmenstein_mode>  (506) 
expansion

>  <fragmenstein_error>  (506) 


$$$$
C5527-P45
     RDKit          3D

 38 40  0  0  0  0  0  0  0  0999 V2000
  -12.4260  -30.2841   28.0659 C   0  0  0  0  0  0  0  0  0  0  0  0
  -12.2308  -28.8054   27.7622 C   0  0  0  0  0  0  0  0  0  0  0  0
  -12.7616  -27.9453   28.9273 C   0  0  0  0  0  0  0  0  0  0  0  0
  -12.3585  -26.5670   28.8226 N   0  0  0  0  0  0  0  0  0  0  0  0
  -11.0548  -25.8737   29.2456 C   0  0  0  0  0  0  0  0  0  0  0  0
  -10.0689  -26.3186   29.6759 O   0  0  0  0  0  0  0  0  0  0  0  0
  -11.2352  -24.4552   29.0677 C   0  0  0  0  0  0  0  0  0  0  0  0
  -11.2043  -23.6858   27.9296 C   0  0  0  0  0  0  0  0  0  0  0  0
  -11.4375  -22.3439   28.1340 N   0  0  0  0  0  0  0  0  0  0  0  0
  -11.6128  -22.1171   29.4119 C   0  0  0  0  0  0  0  0  0  0  0  0
  -11.6030  -23.4828   30.4188 S   0  0  0  0  0  0  0  0  0  0  0  0
  -10.8470  -28.4874   27.4668 N   0  0  0  0  0  0  0  0  0  0  0  0
  -10.2317  -27.2892   26.7010 C   0  0  0  0  0  0  0  0  0  0  0  0
  -10.7474  -26.4154   26.1244 O   0  0  0  0  0  0  0  0  0  0  0  0
   -8.7268  -27.3556   26.8285 C   0  0  0  0  0  0  0  0  0  0  0  0
   -8.1076  -28.4979   26.4612 C   0  0  0  0  0  0  0  0  0  0  0  0
   -6.6669  -28.5789   26.3547 C   0  0  0  0  0  0  0  0  0  0  0  0
   -5.9130  -27.5017   26.6157 C   0  0  0  0  0  0  0  0  0  0  0  0
   -6.5480  -26.3100   26.9447 N   0  0  0  0  0  0  0  0  0  0  0  0
   -5.9943  -25.0740   27.1794 C   0  0  0  0  0  0  0  0  0  0  0  0
   -7.0503  -24.2522   27.4835 C   0  0  0  0  0  0  0  0  0  0  0  0
   -8.2367  -24.9413   27.4351 N   0  0  0  0  0  0  0  0  0  0  0  0
   -7.9333  -26.1787   27.0833 C   0  0  0  0  0  0  0  0  0  0  0  0
  -11.9257  -30.5654   28.9967 H   0  0  0  0  0  0  0  0  0  0  0  0
  -12.0150  -30.9142   27.2729 H   0  0  0  0  0  0  0  0  0  0  0  0
  -13.4897  -30.5206   28.1723 H   0  0  0  0  0  0  0  0  0  0  0  0
  -12.7951  -28.5330   26.8626 H   0  0  0  0  0  0  0  0  0  0  0  0
  -13.8538  -27.9847   28.9818 H   0  0  0  0  0  0  0  0  0  0  0  0
  -12.3497  -28.3185   29.8713 H   0  0  0  0  0  0  0  0  0  0  0  0
  -12.9847  -25.8870   28.4143 H   0  0  0  0  0  0  0  0  0  0  0  0
  -11.0009  -24.0437   26.9269 H   0  0  0  0  0  0  0  0  0  0  0  0
  -11.7589  -21.1206   29.7975 H   0  0  0  0  0  0  0  0  0  0  0  0
  -10.1084  -29.1029   27.7807 H   0  0  0  0  0  0  0  0  0  0  0  0
   -8.6571  -29.3763   26.1321 H   0  0  0  0  0  0  0  0  0  0  0  0
   -6.2558  -29.4996   25.9681 H   0  0  0  0  0  0  0  0  0  0  0  0
   -4.8342  -27.4861   26.5089 H   0  0  0  0  0  0  0  0  0  0  0  0
   -4.9291  -24.9084   27.1211 H   0  0  0  0  0  0  0  0  0  0  0  0
   -7.0246  -23.2002   27.7362 H   0  0  0  0  0  0  0  0  0  0  0  0
  1  2  1  0
  2  3  1  0
  3  4  1  0
  4  5  1  0
  5  6  2  0
  5  7  1  0
  7  8  2  0
  8  9  1  0
  9 10  2  0
 10 11  1  0
  2 12  1  0
 12 13  1  0
 13 14  2  0
 13 15  1  0
 15 16  2  0
 16 17  1  0
 17 18  2  0
 18 19  1  0
 19 20  1  0
 20 21  2  0
 21 22  1  0
 22 23  2  0
 11  7  1  0
 23 15  1  0
 23 19  1  0
  1 24  1  0
  1 25  1  0
  1 26  1  0
  2 27  1  0
  3 28  1  0
  3 29  1  0
  4 30  1  0
  8 31  1  0
 10 32  1  0
 12 33  1  0
 16 34  1  0
 17 35  1  0
 18 36  1  0
 20 37  1  0
 21 38  1  0
M  END
>  <Energy>  (507) 
52.48716321537691

>  <compound_id>  (507) 
5527

>  <target_id>  (507) 
1

>  <reference_id>  (507) 
45

>  <inspiration_ids>  (507) 
[45, 88]

>  <energy_score>  (507) 
-41.199440540112505

>  <distance_score>  (507) 
1.795756074847248

>  <path>  (507) 
/opt/xchem-fragalysis-2/maxwin/BulkDock/SCRATCH/511018/C5527-P45/C5527-P45.minimised.mol

>  <scratch_subdir>  (507) 
/opt/xchem-fragalysis-2/maxwin/BulkDock/SCRATCH/511018/C5527-P45

>  <fragmenstein_runtime>  (507) 
7.919901132583618

>  <fragmenstein_outcome>  (507) 
too moved

>  <fragmenstein_mode>  (507) 
expansion

>  <fragmenstein_error>  (507) 


$$$$
C5527-P88
     RDKit          3D

 38 40  0  0  0  0  0  0  0  0999 V2000
  -15.7945  -27.8232   27.1767 C   0  0  0  0  0  0  0  0  0  0  0  0
  -14.9631  -27.2554   28.3148 C   0  0  0  0  0  0  0  0  0  0  0  0
  -15.1401  -25.7143   28.4692 C   0  0  0  0  0  0  0  0  0  0  0  0
  -13.9113  -25.0179   28.8594 N   0  0  0  0  0  0  0  0  0  0  0  0
  -12.8386  -25.3836   29.9221 C   0  0  0  0  0  0  0  0  0  0  0  0
  -12.7316  -26.3354   30.5942 O   0  0  0  0  0  0  0  0  0  0  0  0
  -11.8836  -24.2860   30.1487 C   0  0  0  0  0  0  0  0  0  0  0  0
  -11.7846  -22.9903   29.6814 C   0  0  0  0  0  0  0  0  0  0  0  0
  -10.7833  -22.2210   30.2283 N   0  0  0  0  0  0  0  0  0  0  0  0
  -10.1220  -22.9392   31.1042 C   0  0  0  0  0  0  0  0  0  0  0  0
  -10.5628  -24.5712   31.2281 S   0  0  0  0  0  0  0  0  0  0  0  0
  -13.5634  -27.5150   28.1228 N   0  0  0  0  0  0  0  0  0  0  0  0
  -12.6513  -28.6010   28.7343 C   0  0  0  0  0  0  0  0  0  0  0  0
  -12.9094  -29.5014   29.4289 O   0  0  0  0  0  0  0  0  0  0  0  0
  -11.2285  -28.2579   28.3639 C   0  0  0  0  0  0  0  0  0  0  0  0
  -10.3042  -29.2610   28.2622 C   0  0  0  0  0  0  0  0  0  0  0  0
   -8.9589  -29.0549   27.6626 C   0  0  0  0  0  0  0  0  0  0  0  0
   -8.5815  -27.7958   27.3118 C   0  0  0  0  0  0  0  0  0  0  0  0
   -9.5164  -26.7201   27.5461 N   0  0  0  0  0  0  0  0  0  0  0  0
   -9.3944  -25.4195   27.9756 C   0  0  0  0  0  0  0  0  0  0  0  0
  -10.5397  -24.8507   27.5092 C   0  0  0  0  0  0  0  0  0  0  0  0
  -11.4948  -25.8308   27.5216 N   0  0  0  0  0  0  0  0  0  0  0  0
  -10.8476  -26.9208   27.9235 C   0  0  0  0  0  0  0  0  0  0  0  0
  -15.4992  -27.3911   26.2140 H   0  0  0  0  0  0  0  0  0  0  0  0
  -16.8587  -27.6201   27.3327 H   0  0  0  0  0  0  0  0  0  0  0  0
  -15.6606  -28.9079   27.1024 H   0  0  0  0  0  0  0  0  0  0  0  0
  -15.2504  -27.7453   29.2521 H   0  0  0  0  0  0  0  0  0  0  0  0
  -15.9066  -25.4979   29.2196 H   0  0  0  0  0  0  0  0  0  0  0  0
  -15.4541  -25.2615   27.5225 H   0  0  0  0  0  0  0  0  0  0  0  0
  -13.7481  -24.0818   28.5247 H   0  0  0  0  0  0  0  0  0  0  0  0
  -12.4015  -22.5261   28.9343 H   0  0  0  0  0  0  0  0  0  0  0  0
   -9.3191  -22.5334   31.7040 H   0  0  0  0  0  0  0  0  0  0  0  0
  -12.9925  -26.8291   27.6292 H   0  0  0  0  0  0  0  0  0  0  0  0
  -10.5916  -30.2897   28.4637 H   0  0  0  0  0  0  0  0  0  0  0  0
   -8.3351  -29.9200   27.4874 H   0  0  0  0  0  0  0  0  0  0  0  0
   -7.6005  -27.5675   26.9307 H   0  0  0  0  0  0  0  0  0  0  0  0
   -8.5289  -25.0683   28.5010 H   0  0  0  0  0  0  0  0  0  0  0  0
  -10.7765  -23.8064   27.3515 H   0  0  0  0  0  0  0  0  0  0  0  0
  1  2  1  0
  2  3  1  0
  3  4  1  0
  4  5  1  0
  5  6  2  0
  5  7  1  0
  7  8  2  0
  8  9  1  0
  9 10  2  0
 10 11  1  0
  2 12  1  0
 12 13  1  0
 13 14  2  0
 13 15  1  0
 15 16  2  0
 16 17  1  0
 17 18  2  0
 18 19  1  0
 19 20  1  0
 20 21  2  0
 21 22  1  0
 22 23  2  0
 11  7  1  0
 23 15  1  0
 23 19  1  0
  1 24  1  0
  1 25  1  0
  1 26  1  0
  2 27  1  0
  3 28  1  0
  3 29  1  0
  4 30  1  0
  8 31  1  0
 10 32  1  0
 12 33  1  0
 16 34  1  0
 17 35  1  0
 18 36  1  0
 20 37  1  0
 21 38  1  0
M  END
>  <Energy>  (508) 
87.989154221092207

>  <compound_id>  (508) 
5527

>  <target_id>  (508) 
1

>  <reference_id>  (508) 
88

>  <inspiration_ids>  (508) 
[45, 88]

>  <energy_score>  (508) 
-5.697449534396611

>  <distance_score>  (508) 
3.2235048515023523

>  <path>  (508) 
/opt/xchem-fragalysis-2/maxwin/BulkDock/SCRATCH/511018/C5527-P88/C5527-P88.minimised.mol

>  <scratch_subdir>  (508) 
/opt/xchem-fragalysis-2/maxwin/BulkDock/SCRATCH/511018/C5527-P88

>  <fragmenstein_runtime>  (508) 
3.907862663269043

>  <fragmenstein_outcome>  (508) 
too moved

>  <fragmenstein_mode>  (508) 
expansion

>  <fragmenstein_error>  (508) 


$$$$
C5528-P45
     RDKit          3D

 41 43  0  0  0  0  0  0  0  0999 V2000
   -7.8226  -23.7464   27.9090 C   0  0  0  0  0  0  0  0  0  0  0  0
   -7.6978  -25.1554   27.5369 C   0  0  0  0  0  0  0  0  0  0  0  0
   -6.5383  -25.7317   27.0951 C   0  0  0  0  0  0  0  0  0  0  0  0
   -6.8632  -27.0262   26.8404 N   0  0  0  0  0  0  0  0  0  0  0  0
   -6.0287  -27.9810   26.3013 C   0  0  0  0  0  0  0  0  0  0  0  0
   -6.5915  -29.1056   25.8641 C   0  0  0  0  0  0  0  0  0  0  0  0
   -7.9690  -29.3698   26.1203 C   0  0  0  0  0  0  0  0  0  0  0  0
   -8.7668  -28.5182   26.7883 C   0  0  0  0  0  0  0  0  0  0  0  0
  -10.0749  -29.2215   27.1089 C   0  0  0  0  0  0  0  0  0  0  0  0
  -10.1254  -30.3807   27.0594 O   0  0  0  0  0  0  0  0  0  0  0  0
  -11.1381  -28.2063   27.4773 N   0  0  0  0  0  0  0  0  0  0  0  0
  -12.5356  -28.3809   27.7781 C   0  0  0  0  0  0  0  0  0  0  0  0
  -12.7266  -28.5661   29.2766 C   0  0  0  0  0  0  0  0  0  0  0  0
  -13.3730  -27.2654   27.1888 C   0  0  0  0  0  0  0  0  0  0  0  0
  -12.8977  -26.0004   27.6791 N   0  0  0  0  0  0  0  0  0  0  0  0
  -11.9193  -24.9842   27.0499 C   0  0  0  0  0  0  0  0  0  0  0  0
  -11.4070  -24.9783   26.0037 O   0  0  0  0  0  0  0  0  0  0  0  0
  -11.6731  -23.9659   28.0459 C   0  0  0  0  0  0  0  0  0  0  0  0
  -11.5945  -22.6043   27.9150 C   0  0  0  0  0  0  0  0  0  0  0  0
  -11.5894  -21.8956   29.1020 N   0  0  0  0  0  0  0  0  0  0  0  0
  -11.5487  -22.7270   30.1103 C   0  0  0  0  0  0  0  0  0  0  0  0
  -11.4190  -24.3722   29.6841 S   0  0  0  0  0  0  0  0  0  0  0  0
   -8.2334  -27.2121   27.1218 C   0  0  0  0  0  0  0  0  0  0  0  0
   -8.7302  -26.0839   27.6162 N   0  0  0  0  0  0  0  0  0  0  0  0
   -8.8509  -23.4785   28.1266 H   0  0  0  0  0  0  0  0  0  0  0  0
   -7.1980  -23.5469   28.7750 H   0  0  0  0  0  0  0  0  0  0  0  0
   -7.4374  -23.1107   27.1101 H   0  0  0  0  0  0  0  0  0  0  0  0
   -5.5472  -25.3362   26.9179 H   0  0  0  0  0  0  0  0  0  0  0  0
   -4.9900  -27.7243   26.1325 H   0  0  0  0  0  0  0  0  0  0  0  0
   -6.0968  -29.8625   25.2856 H   0  0  0  0  0  0  0  0  0  0  0  0
   -8.3006  -30.3557   25.7999 H   0  0  0  0  0  0  0  0  0  0  0  0
  -10.7244  -27.2730   27.4956 H   0  0  0  0  0  0  0  0  0  0  0  0
  -12.8429  -29.3203   27.3035 H   0  0  0  0  0  0  0  0  0  0  0  0
  -13.7864  -28.6358   29.5405 H   0  0  0  0  0  0  0  0  0  0  0  0
  -12.2315  -29.4815   29.6193 H   0  0  0  0  0  0  0  0  0  0  0  0
  -12.2787  -27.7371   29.8251 H   0  0  0  0  0  0  0  0  0  0  0  0
  -14.4269  -27.3747   27.4618 H   0  0  0  0  0  0  0  0  0  0  0  0
  -13.2837  -27.2531   26.0972 H   0  0  0  0  0  0  0  0  0  0  0  0
  -13.0859  -25.7375   28.6492 H   0  0  0  0  0  0  0  0  0  0  0  0
  -11.6177  -22.0726   26.9750 H   0  0  0  0  0  0  0  0  0  0  0  0
  -11.5426  -22.3824   31.1367 H   0  0  0  0  0  0  0  0  0  0  0  0
  1  2  1  0
  2  3  2  0
  3  4  1  0
  4  5  1  0
  5  6  2  0
  6  7  1  0
  7  8  2  0
  8  9  1  0
  9 10  2  0
  9 11  1  0
 11 12  1  0
 12 13  1  0
 12 14  1  0
 14 15  1  0
 15 16  1  0
 16 17  2  0
 16 18  1  0
 18 19  2  0
 19 20  1  0
 20 21  2  0
 21 22  1  0
  8 23  1  0
 23 24  2  0
 24  2  1  0
 23  4  1  0
 22 18  1  0
  1 25  1  0
  1 26  1  0
  1 27  1  0
  3 28  1  0
  5 29  1  0
  6 30  1  0
  7 31  1  0
 11 32  1  0
 12 33  1  0
 13 34  1  0
 13 35  1  0
 13 36  1  0
 14 37  1  0
 14 38  1  0
 15 39  1  0
 19 40  1  0
 21 41  1  0
M  END
>  <Energy>  (509) 
50.94998599623316

>  <compound_id>  (509) 
5528

>  <target_id>  (509) 
1

>  <reference_id>  (509) 
45

>  <inspiration_ids>  (509) 
[45, 88]

>  <energy_score>  (509) 
-26.24904665439732

>  <distance_score>  (509) 
1.2467852503319028

>  <path>  (509) 
/opt/xchem-fragalysis-2/maxwin/BulkDock/SCRATCH/511018/C5528-P45/C5528-P45.minimised.mol

>  <scratch_subdir>  (509) 
/opt/xchem-fragalysis-2/maxwin/BulkDock/SCRATCH/511018/C5528-P45

>  <fragmenstein_runtime>  (509) 
4.988042593002319

>  <fragmenstein_outcome>  (509) 
too moved

>  <fragmenstein_mode>  (509) 
expansion

>  <fragmenstein_error>  (509) 


$$$$
C5528-P88
     RDKit          3D

 41 43  0  0  0  0  0  0  0  0999 V2000
  -11.4920  -24.3573   26.3126 C   0  0  0  0  0  0  0  0  0  0  0  0
  -11.7374  -25.6977   26.8945 C   0  0  0  0  0  0  0  0  0  0  0  0
  -10.9136  -26.3948   27.7472 C   0  0  0  0  0  0  0  0  0  0  0  0
  -11.5494  -27.5903   28.0230 N   0  0  0  0  0  0  0  0  0  0  0  0
  -11.0487  -28.7870   28.5580 C   0  0  0  0  0  0  0  0  0  0  0  0
  -11.7644  -29.9158   28.4370 C   0  0  0  0  0  0  0  0  0  0  0  0
  -13.1350  -29.8266   27.9902 C   0  0  0  0  0  0  0  0  0  0  0  0
  -13.6438  -28.6670   27.5188 C   0  0  0  0  0  0  0  0  0  0  0  0
  -15.1304  -28.4846   27.7079 C   0  0  0  0  0  0  0  0  0  0  0  0
  -15.7574  -29.3752   28.2009 O   0  0  0  0  0  0  0  0  0  0  0  0
  -15.5209  -27.1777   27.3277 N   0  0  0  0  0  0  0  0  0  0  0  0
  -16.7537  -26.4798   27.5020 C   0  0  0  0  0  0  0  0  0  0  0  0
  -17.0055  -25.4593   26.4051 C   0  0  0  0  0  0  0  0  0  0  0  0
  -16.6296  -25.8630   28.9289 C   0  0  0  0  0  0  0  0  0  0  0  0
  -15.2493  -25.5036   29.3317 N   0  0  0  0  0  0  0  0  0  0  0  0
  -14.2583  -24.6944   28.6795 C   0  0  0  0  0  0  0  0  0  0  0  0
  -14.3223  -24.0415   27.6848 O   0  0  0  0  0  0  0  0  0  0  0  0
  -12.9788  -24.6036   29.4393 C   0  0  0  0  0  0  0  0  0  0  0  0
  -12.0951  -23.5304   29.4500 C   0  0  0  0  0  0  0  0  0  0  0  0
  -10.9499  -23.6684   30.2093 N   0  0  0  0  0  0  0  0  0  0  0  0
  -10.9720  -24.8332   30.8084 C   0  0  0  0  0  0  0  0  0  0  0  0
  -12.3193  -25.8438   30.4610 S   0  0  0  0  0  0  0  0  0  0  0  0
  -12.7694  -27.5390   27.3625 C   0  0  0  0  0  0  0  0  0  0  0  0
  -12.8989  -26.4109   26.6849 N   0  0  0  0  0  0  0  0  0  0  0  0
  -11.0773  -23.6672   27.0496 H   0  0  0  0  0  0  0  0  0  0  0  0
  -10.7444  -24.4236   25.5226 H   0  0  0  0  0  0  0  0  0  0  0  0
  -12.4083  -23.9174   25.9120 H   0  0  0  0  0  0  0  0  0  0  0  0
   -9.9343  -26.1200   28.0884 H   0  0  0  0  0  0  0  0  0  0  0  0
  -10.0315  -28.8197   28.9029 H   0  0  0  0  0  0  0  0  0  0  0  0
  -11.3871  -30.8887   28.7271 H   0  0  0  0  0  0  0  0  0  0  0  0
  -13.7758  -30.6702   28.2419 H   0  0  0  0  0  0  0  0  0  0  0  0
  -14.6963  -26.6622   27.0144 H   0  0  0  0  0  0  0  0  0  0  0  0
  -17.5750  -27.2057   27.5100 H   0  0  0  0  0  0  0  0  0  0  0  0
  -17.9382  -24.9163   26.5882 H   0  0  0  0  0  0  0  0  0  0  0  0
  -16.1999  -24.7281   26.3167 H   0  0  0  0  0  0  0  0  0  0  0  0
  -17.0904  -25.9589   25.4336 H   0  0  0  0  0  0  0  0  0  0  0  0
  -16.9540  -26.6056   29.6677 H   0  0  0  0  0  0  0  0  0  0  0  0
  -17.2821  -24.9973   29.0321 H   0  0  0  0  0  0  0  0  0  0  0  0
  -14.8209  -25.9841   30.1129 H   0  0  0  0  0  0  0  0  0  0  0  0
  -12.2270  -22.6128   28.8900 H   0  0  0  0  0  0  0  0  0  0  0  0
  -10.1814  -25.1450   31.4789 H   0  0  0  0  0  0  0  0  0  0  0  0
  1  2  1  0
  2  3  2  0
  3  4  1  0
  4  5  1  0
  5  6  2  0
  6  7  1  0
  7  8  2  0
  8  9  1  0
  9 10  2  0
  9 11  1  0
 11 12  1  0
 12 13  1  0
 12 14  1  0
 14 15  1  0
 15 16  1  0
 16 17  2  0
 16 18  1  0
 18 19  2  0
 19 20  1  0
 20 21  2  0
 21 22  1  0
  8 23  1  0
 23 24  2  0
 24  2  1  0
 23  4  1  0
 22 18  1  0
  1 25  1  0
  1 26  1  0
  1 27  1  0
  3 28  1  0
  5 29  1  0
  6 30  1  0
  7 31  1  0
 11 32  1  0
 12 33  1  0
 13 34  1  0
 13 35  1  0
 13 36  1  0
 14 37  1  0
 14 38  1  0
 15 39  1  0
 19 40  1  0
 21 41  1  0
M  END
>  <Energy>  (510) 
45.603377361892399

>  <compound_id>  (510) 
5528

>  <target_id>  (510) 
1

>  <reference_id>  (510) 
88

>  <inspiration_ids>  (510) 
[45, 88]

>  <energy_score>  (510) 
-74.60638750632779

>  <distance_score>  (510) 
4.692720398123017

>  <path>  (510) 
/opt/xchem-fragalysis-2/maxwin/BulkDock/SCRATCH/511018/C5528-P88/C5528-P88.minimised.mol

>  <scratch_subdir>  (510) 
/opt/xchem-fragalysis-2/maxwin/BulkDock/SCRATCH/511018/C5528-P88

>  <fragmenstein_runtime>  (510) 
11.175686359405518

>  <fragmenstein_outcome>  (510) 
too moved

>  <fragmenstein_mode>  (510) 
expansion

>  <fragmenstein_error>  (510) 


$$$$
C5530-P45
     RDKit          3D

 39 41  0  0  0  0  0  0  0  0999 V2000
   -8.8060  -30.0635   25.8943 C   0  0  0  0  0  0  0  0  0  0  0  0
   -7.4824  -29.6079   26.1150 O   0  0  0  0  0  0  0  0  0  0  0  0
   -7.3496  -28.4325   26.7818 C   0  0  0  0  0  0  0  0  0  0  0  0
   -6.0474  -27.7987   26.5380 C   0  0  0  0  0  0  0  0  0  0  0  0
   -5.9859  -26.4592   26.6111 C   0  0  0  0  0  0  0  0  0  0  0  0
   -7.1325  -25.8413   27.0366 N   0  0  0  0  0  0  0  0  0  0  0  0
   -7.7957  -24.6382   26.8895 C   0  0  0  0  0  0  0  0  0  0  0  0
   -9.1203  -24.7494   26.1931 C   0  0  0  0  0  0  0  0  0  0  0  0
   -9.1524  -24.7940   25.0116 O   0  0  0  0  0  0  0  0  0  0  0  0
  -10.1505  -24.8758   27.1447 N   0  0  0  0  0  0  0  0  0  0  0  0
  -11.5292  -25.1892   26.9943 C   0  0  0  0  0  0  0  0  0  0  0  0
  -12.1087  -24.3993   25.8325 C   0  0  0  0  0  0  0  0  0  0  0  0
  -11.8809  -25.1744   24.6674 O   0  0  0  0  0  0  0  0  0  0  0  0
  -12.0991  -25.0608   28.4008 C   0  0  0  0  0  0  0  0  0  0  0  0
  -11.8702  -23.7291   29.0499 C   0  0  0  0  0  0  0  0  0  0  0  0
  -11.8430  -22.4564   28.5295 C   0  0  0  0  0  0  0  0  0  0  0  0
  -11.8238  -21.4404   29.4546 N   0  0  0  0  0  0  0  0  0  0  0  0
  -11.6547  -21.9297   30.6530 C   0  0  0  0  0  0  0  0  0  0  0  0
  -11.5255  -23.6135   30.7172 S   0  0  0  0  0  0  0  0  0  0  0  0
   -7.7300  -24.3979   28.2518 C   0  0  0  0  0  0  0  0  0  0  0  0
   -8.3450  -25.5403   28.7907 N   0  0  0  0  0  0  0  0  0  0  0  0
   -8.0262  -26.4756   27.8809 C   0  0  0  0  0  0  0  0  0  0  0  0
   -8.2970  -27.8104   27.5258 C   0  0  0  0  0  0  0  0  0  0  0  0
   -8.7704  -30.8788   25.1662 H   0  0  0  0  0  0  0  0  0  0  0  0
   -9.4168  -29.2601   25.4754 H   0  0  0  0  0  0  0  0  0  0  0  0
   -9.2480  -30.4493   26.8175 H   0  0  0  0  0  0  0  0  0  0  0  0
   -5.2166  -28.3779   26.1636 H   0  0  0  0  0  0  0  0  0  0  0  0
   -5.1389  -25.8581   26.3159 H   0  0  0  0  0  0  0  0  0  0  0  0
   -9.7438  -24.8683   28.0744 H   0  0  0  0  0  0  0  0  0  0  0  0
  -11.5620  -26.2560   26.7335 H   0  0  0  0  0  0  0  0  0  0  0  0
  -13.1685  -24.2515   25.8590 H   0  0  0  0  0  0  0  0  0  0  0  0
  -11.6574  -23.4185   25.6913 H   0  0  0  0  0  0  0  0  0  0  0  0
  -10.9450  -25.0013   24.4122 H   0  0  0  0  0  0  0  0  0  0  0  0
  -13.1387  -25.3684   28.4401 H   0  0  0  0  0  0  0  0  0  0  0  0
  -11.5928  -25.8219   29.0162 H   0  0  0  0  0  0  0  0  0  0  0  0
  -11.8950  -22.1930   27.4845 H   0  0  0  0  0  0  0  0  0  0  0  0
  -11.5657  -21.3064   31.5325 H   0  0  0  0  0  0  0  0  0  0  0  0
   -7.7078  -23.4393   28.7336 H   0  0  0  0  0  0  0  0  0  0  0  0
   -9.2657  -28.2305   27.7468 H   0  0  0  0  0  0  0  0  0  0  0  0
  1  2  1  0
  2  3  1  0
  3  4  1  0
  4  5  2  0
  5  6  1  0
  6  7  1  0
  7  8  1  0
  8  9  2  0
  8 10  1  0
 10 11  1  0
 11 12  1  0
 12 13  1  0
 11 14  1  0
 14 15  1  0
 15 16  2  0
 16 17  1  0
 17 18  2  0
 18 19  1  0
  7 20  2  0
 20 21  1  0
 21 22  2  0
 22 23  1  0
 23  3  2  0
 22  6  1  0
 19 15  1  0
  1 24  1  0
  1 25  1  0
  1 26  1  0
  4 27  1  0
  5 28  1  0
 10 29  1  0
 11 30  1  0
 12 31  1  0
 12 32  1  0
 13 33  1  0
 14 34  1  0
 14 35  1  0
 16 36  1  0
 18 37  1  0
 20 38  1  0
 23 39  1  0
M  END
>  <Energy>  (511) 
119.86877679404517

>  <compound_id>  (511) 
5530

>  <target_id>  (511) 
1

>  <reference_id>  (511) 
45

>  <inspiration_ids>  (511) 
[45, 88]

>  <energy_score>  (511) 
43.826086340767745

>  <distance_score>  (511) 
1.522242470422375

>  <path>  (511) 
/opt/xchem-fragalysis-2/maxwin/BulkDock/SCRATCH/511018/C5530-P45/C5530-P45.minimised.mol

>  <scratch_subdir>  (511) 
/opt/xchem-fragalysis-2/maxwin/BulkDock/SCRATCH/511018/C5530-P45

>  <fragmenstein_runtime>  (511) 
7.5815651416778564

>  <fragmenstein_outcome>  (511) 
too moved

>  <fragmenstein_mode>  (511) 
expansion

>  <fragmenstein_error>  (511) 


$$$$
C5530-P88
     RDKit          3D

 39 41  0  0  0  0  0  0  0  0999 V2000
   -8.6609  -31.4043   26.2801 C   0  0  0  0  0  0  0  0  0  0  0  0
   -8.2031  -30.0759   26.4649 O   0  0  0  0  0  0  0  0  0  0  0  0
   -8.8061  -29.2448   27.3710 C   0  0  0  0  0  0  0  0  0  0  0  0
   -8.4703  -27.8196   27.1687 C   0  0  0  0  0  0  0  0  0  0  0  0
   -9.4100  -26.8525   27.4495 C   0  0  0  0  0  0  0  0  0  0  0  0
  -10.6075  -27.2329   28.1464 N   0  0  0  0  0  0  0  0  0  0  0  0
  -11.7987  -26.6262   28.5139 C   0  0  0  0  0  0  0  0  0  0  0  0
  -12.5112  -25.4000   28.2039 C   0  0  0  0  0  0  0  0  0  0  0  0
  -13.5520  -25.2426   28.6876 O   0  0  0  0  0  0  0  0  0  0  0  0
  -11.6791  -24.4745   27.3440 N   0  0  0  0  0  0  0  0  0  0  0  0
  -11.8949  -23.1125   26.9644 C   0  0  0  0  0  0  0  0  0  0  0  0
  -11.8036  -22.8208   25.4820 C   0  0  0  0  0  0  0  0  0  0  0  0
  -10.5543  -23.2990   24.9955 O   0  0  0  0  0  0  0  0  0  0  0  0
  -10.8398  -22.3478   27.7436 C   0  0  0  0  0  0  0  0  0  0  0  0
  -10.8472  -22.6023   29.2159 C   0  0  0  0  0  0  0  0  0  0  0  0
  -11.4803  -21.8693   30.1917 C   0  0  0  0  0  0  0  0  0  0  0  0
  -11.2464  -22.2764   31.4819 N   0  0  0  0  0  0  0  0  0  0  0  0
  -10.4618  -23.3282   31.4801 C   0  0  0  0  0  0  0  0  0  0  0  0
   -9.9260  -23.8588   29.9492 S   0  0  0  0  0  0  0  0  0  0  0  0
  -12.2190  -27.4216   29.5648 C   0  0  0  0  0  0  0  0  0  0  0  0
  -11.5550  -28.5910   29.6509 N   0  0  0  0  0  0  0  0  0  0  0  0
  -10.6867  -28.5389   28.6832 C   0  0  0  0  0  0  0  0  0  0  0  0
   -9.8402  -29.5644   28.1703 C   0  0  0  0  0  0  0  0  0  0  0  0
   -9.7360  -31.5424   26.4303 H   0  0  0  0  0  0  0  0  0  0  0  0
   -8.1302  -32.1013   26.9209 H   0  0  0  0  0  0  0  0  0  0  0  0
   -8.4236  -31.6994   25.2518 H   0  0  0  0  0  0  0  0  0  0  0  0
   -7.4809  -27.6289   26.7818 H   0  0  0  0  0  0  0  0  0  0  0  0
   -9.2562  -25.8064   27.4059 H   0  0  0  0  0  0  0  0  0  0  0  0
  -10.7964  -24.8994   27.1582 H   0  0  0  0  0  0  0  0  0  0  0  0
  -12.8923  -22.8657   27.3004 H   0  0  0  0  0  0  0  0  0  0  0  0
  -12.6390  -23.2946   24.9633 H   0  0  0  0  0  0  0  0  0  0  0  0
  -11.8773  -21.7538   25.2633 H   0  0  0  0  0  0  0  0  0  0  0  0
  -10.3327  -22.7790   24.1950 H   0  0  0  0  0  0  0  0  0  0  0  0
  -10.9674  -21.2713   27.5888 H   0  0  0  0  0  0  0  0  0  0  0  0
   -9.8426  -22.6120   27.3800 H   0  0  0  0  0  0  0  0  0  0  0  0
  -12.0917  -20.9934   30.0251 H   0  0  0  0  0  0  0  0  0  0  0  0
  -10.1563  -23.8174   32.3955 H   0  0  0  0  0  0  0  0  0  0  0  0
  -13.0568  -27.2197   30.2224 H   0  0  0  0  0  0  0  0  0  0  0  0
  -10.1800  -30.5802   28.3092 H   0  0  0  0  0  0  0  0  0  0  0  0
  1  2  1  0
  2  3  1  0
  3  4  1  0
  4  5  2  0
  5  6  1  0
  6  7  1  0
  7  8  1  0
  8  9  2  0
  8 10  1  0
 10 11  1  0
 11 12  1  0
 12 13  1  0
 11 14  1  0
 14 15  1  0
 15 16  2  0
 16 17  1  0
 17 18  2  0
 18 19  1  0
  7 20  2  0
 20 21  1  0
 21 22  2  0
 22 23  1  0
 23  3  2  0
 22  6  1  0
 19 15  1  0
  1 24  1  0
  1 25  1  0
  1 26  1  0
  4 27  1  0
  5 28  1  0
 10 29  1  0
 11 30  1  0
 12 31  1  0
 12 32  1  0
 13 33  1  0
 14 34  1  0
 14 35  1  0
 16 36  1  0
 18 37  1  0
 20 38  1  0
 23 39  1  0
M  END
>  <Energy>  (512) 
55.06957334689023

>  <compound_id>  (512) 
5530

>  <target_id>  (512) 
1

>  <reference_id>  (512) 
88

>  <inspiration_ids>  (512) 
[45, 88]

>  <energy_score>  (512) 
-3.0423709626552977

>  <distance_score>  (512) 
3.6499079320313337

>  <path>  (512) 
/opt/xchem-fragalysis-2/maxwin/BulkDock/SCRATCH/511018/C5530-P88/C5530-P88.minimised.mol

>  <scratch_subdir>  (512) 
/opt/xchem-fragalysis-2/maxwin/BulkDock/SCRATCH/511018/C5530-P88

>  <fragmenstein_runtime>  (512) 
7.384688377380371

>  <fragmenstein_outcome>  (512) 
too moved

>  <fragmenstein_mode>  (512) 
expansion

>  <fragmenstein_error>  (512) 


$$$$
C5531-P45
     RDKit          3D

 34 36  0  0  0  0  0  0  0  0999 V2000
   -9.3842  -31.1394   26.3072 C   0  0  0  0  0  0  0  0  0  0  0  0
   -8.5860  -30.1880   25.6285 O   0  0  0  0  0  0  0  0  0  0  0  0
   -8.2290  -29.1279   26.4059 C   0  0  0  0  0  0  0  0  0  0  0  0
   -6.8706  -28.6618   26.1768 C   0  0  0  0  0  0  0  0  0  0  0  0
   -6.5066  -27.4579   26.6428 C   0  0  0  0  0  0  0  0  0  0  0  0
   -7.4293  -26.7788   27.4143 N   0  0  0  0  0  0  0  0  0  0  0  0
   -7.6549  -25.4429   27.6216 C   0  0  0  0  0  0  0  0  0  0  0  0
   -8.1056  -24.7108   26.5071 C   0  0  0  0  0  0  0  0  0  0  0  0
   -7.4458  -23.9974   25.8634 O   0  0  0  0  0  0  0  0  0  0  0  0
   -9.5924  -25.1486   26.3286 N   0  0  0  0  0  0  0  0  0  0  0  0
  -10.5767  -24.7244   25.3862 C   0  0  0  0  0  0  0  0  0  0  0  0
  -11.8484  -24.6179   26.2219 C   0  0  0  0  0  0  0  0  0  0  0  0
  -12.8629  -25.2010   25.8322 O   0  0  0  0  0  0  0  0  0  0  0  0
  -11.7566  -23.9462   27.5005 C   0  0  0  0  0  0  0  0  0  0  0  0
  -11.5248  -22.6260   27.7939 C   0  0  0  0  0  0  0  0  0  0  0  0
  -11.4276  -22.3041   29.1287 N   0  0  0  0  0  0  0  0  0  0  0  0
  -11.5953  -23.3909   29.8389 C   0  0  0  0  0  0  0  0  0  0  0  0
  -11.8590  -24.8370   28.9565 S   0  0  0  0  0  0  0  0  0  0  0  0
   -8.3940  -25.4044   28.7817 C   0  0  0  0  0  0  0  0  0  0  0  0
   -9.1448  -26.5604   28.8186 N   0  0  0  0  0  0  0  0  0  0  0  0
   -8.5967  -27.3451   27.9098 C   0  0  0  0  0  0  0  0  0  0  0  0
   -9.0540  -28.5017   27.2621 C   0  0  0  0  0  0  0  0  0  0  0  0
  -10.3542  -30.7500   26.6231 H   0  0  0  0  0  0  0  0  0  0  0  0
   -8.8621  -31.5523   27.1740 H   0  0  0  0  0  0  0  0  0  0  0  0
   -9.5682  -31.9599   25.6098 H   0  0  0  0  0  0  0  0  0  0  0  0
   -6.2331  -29.2540   25.5371 H   0  0  0  0  0  0  0  0  0  0  0  0
   -5.5691  -26.9718   26.4035 H   0  0  0  0  0  0  0  0  0  0  0  0
   -9.8770  -25.7175   27.1202 H   0  0  0  0  0  0  0  0  0  0  0  0
  -10.7603  -25.6074   24.7833 H   0  0  0  0  0  0  0  0  0  0  0  0
  -10.3857  -23.9044   24.7203 H   0  0  0  0  0  0  0  0  0  0  0  0
  -11.4253  -21.8433   27.0593 H   0  0  0  0  0  0  0  0  0  0  0  0
  -11.5404  -23.3656   30.9181 H   0  0  0  0  0  0  0  0  0  0  0  0
   -8.7110  -24.5467   29.3395 H   0  0  0  0  0  0  0  0  0  0  0  0
  -10.0792  -28.8010   27.4225 H   0  0  0  0  0  0  0  0  0  0  0  0
  1  2  1  0
  2  3  1  0
  3  4  1  0
  4  5  2  0
  5  6  1  0
  6  7  1  0
  7  8  1  0
  8  9  2  0
  8 10  1  0
 10 11  1  0
 11 12  1  0
 12 13  2  0
 12 14  1  0
 14 15  2  0
 15 16  1  0
 16 17  2  0
 17 18  1  0
  7 19  2  0
 19 20  1  0
 20 21  2  0
 21 22  1  0
 22  3  2  0
 21  6  1  0
 18 14  1  0
  1 23  1  0
  1 24  1  0
  1 25  1  0
  4 26  1  0
  5 27  1  0
 10 28  1  0
 11 29  1  0
 11 30  1  0
 15 31  1  0
 17 32  1  0
 19 33  1  0
 22 34  1  0
M  END
>  <Energy>  (513) 
104.47873916648722

>  <compound_id>  (513) 
5531

>  <target_id>  (513) 
1

>  <reference_id>  (513) 
45

>  <inspiration_ids>  (513) 
[45, 88]

>  <energy_score>  (513) 
17.569652120462933

>  <distance_score>  (513) 
1.4927401723304976

>  <path>  (513) 
/opt/xchem-fragalysis-2/maxwin/BulkDock/SCRATCH/511018/C5531-P45/C5531-P45.minimised.mol

>  <scratch_subdir>  (513) 
/opt/xchem-fragalysis-2/maxwin/BulkDock/SCRATCH/511018/C5531-P45

>  <fragmenstein_runtime>  (513) 
4.545573472976685

>  <fragmenstein_outcome>  (513) 
too moved

>  <fragmenstein_mode>  (513) 
expansion

>  <fragmenstein_error>  (513) 


$$$$
C5531-P88
     RDKit          3D

 34 36  0  0  0  0  0  0  0  0999 V2000
   -9.7191  -33.7831   25.2825 C   0  0  0  0  0  0  0  0  0  0  0  0
   -9.1384  -32.7339   26.0394 O   0  0  0  0  0  0  0  0  0  0  0  0
   -9.9889  -31.9556   26.7728 C   0  0  0  0  0  0  0  0  0  0  0  0
   -9.3235  -30.7622   27.2585 C   0  0  0  0  0  0  0  0  0  0  0  0
  -10.0109  -29.8661   27.9756 C   0  0  0  0  0  0  0  0  0  0  0  0
  -11.3841  -30.0196   28.1205 N   0  0  0  0  0  0  0  0  0  0  0  0
  -12.3527  -29.0887   28.4404 C   0  0  0  0  0  0  0  0  0  0  0  0
  -12.0983  -27.6832   28.5931 C   0  0  0  0  0  0  0  0  0  0  0  0
  -11.3512  -27.3220   29.4458 O   0  0  0  0  0  0  0  0  0  0  0  0
  -12.7661  -26.9505   27.5694 N   0  0  0  0  0  0  0  0  0  0  0  0
  -12.6733  -25.5602   27.1841 C   0  0  0  0  0  0  0  0  0  0  0  0
  -12.9204  -24.6592   28.3871 C   0  0  0  0  0  0  0  0  0  0  0  0
  -14.0313  -24.6142   28.9183 O   0  0  0  0  0  0  0  0  0  0  0  0
  -11.7450  -24.0062   28.9049 C   0  0  0  0  0  0  0  0  0  0  0  0
  -10.8198  -23.2136   28.2635 C   0  0  0  0  0  0  0  0  0  0  0  0
   -9.7097  -22.8903   29.0147 N   0  0  0  0  0  0  0  0  0  0  0  0
   -9.8337  -23.3912   30.2241 C   0  0  0  0  0  0  0  0  0  0  0  0
  -11.2666  -24.2580   30.5273 S   0  0  0  0  0  0  0  0  0  0  0  0
  -13.5379  -29.7847   28.4105 C   0  0  0  0  0  0  0  0  0  0  0  0
  -13.3506  -31.0489   27.9197 N   0  0  0  0  0  0  0  0  0  0  0  0
  -12.0588  -31.1554   27.6979 C   0  0  0  0  0  0  0  0  0  0  0  0
  -11.3012  -32.1611   27.0271 C   0  0  0  0  0  0  0  0  0  0  0  0
  -10.4684  -33.3982   24.5824 H   0  0  0  0  0  0  0  0  0  0  0  0
   -8.9252  -34.2574   24.6979 H   0  0  0  0  0  0  0  0  0  0  0  0
  -10.1533  -34.5452   25.9379 H   0  0  0  0  0  0  0  0  0  0  0  0
   -8.2722  -30.6208   27.0294 H   0  0  0  0  0  0  0  0  0  0  0  0
   -9.5510  -28.9728   28.3568 H   0  0  0  0  0  0  0  0  0  0  0  0
  -13.3914  -27.5734   27.0717 H   0  0  0  0  0  0  0  0  0  0  0  0
  -13.4292  -25.3572   26.4200 H   0  0  0  0  0  0  0  0  0  0  0  0
  -11.6822  -25.3992   26.7511 H   0  0  0  0  0  0  0  0  0  0  0  0
  -10.8812  -22.8601   27.2403 H   0  0  0  0  0  0  0  0  0  0  0  0
   -9.0788  -23.2592   30.9883 H   0  0  0  0  0  0  0  0  0  0  0  0
  -14.5313  -29.4196   28.6428 H   0  0  0  0  0  0  0  0  0  0  0  0
  -11.8363  -33.0386   26.6878 H   0  0  0  0  0  0  0  0  0  0  0  0
  1  2  1  0
  2  3  1  0
  3  4  1  0
  4  5  2  0
  5  6  1  0
  6  7  1  0
  7  8  1  0
  8  9  2  0
  8 10  1  0
 10 11  1  0
 11 12  1  0
 12 13  2  0
 12 14  1  0
 14 15  2  0
 15 16  1  0
 16 17  2  0
 17 18  1  0
  7 19  2  0
 19 20  1  0
 20 21  2  0
 21 22  1  0
 22  3  2  0
 21  6  1  0
 18 14  1  0
  1 23  1  0
  1 24  1  0
  1 25  1  0
  4 26  1  0
  5 27  1  0
 10 28  1  0
 11 29  1  0
 11 30  1  0
 15 31  1  0
 17 32  1  0
 19 33  1  0
 22 34  1  0
M  END
>  <Energy>  (514) 
33.641489657658347

>  <compound_id>  (514) 
5531

>  <target_id>  (514) 
1

>  <reference_id>  (514) 
88

>  <inspiration_ids>  (514) 
[45, 88]

>  <energy_score>  (514) 
-64.32968591704355

>  <distance_score>  (514) 
4.875353163606428

>  <path>  (514) 
/opt/xchem-fragalysis-2/maxwin/BulkDock/SCRATCH/511018/C5531-P88/C5531-P88.minimised.mol

>  <scratch_subdir>  (514) 
/opt/xchem-fragalysis-2/maxwin/BulkDock/SCRATCH/511018/C5531-P88

>  <fragmenstein_runtime>  (514) 
7.999799489974976

>  <fragmenstein_outcome>  (514) 
too moved

>  <fragmenstein_mode>  (514) 
expansion

>  <fragmenstein_error>  (514) 


$$$$
C5532-P45
     RDKit          3D

 28 30  0  0  0  0  0  0  0  0999 V2000
  -10.4084  -24.0501   33.0687 C   0  0  0  0  0  0  0  0  0  0  0  0
  -10.4052  -24.2085   31.5879 C   0  0  0  0  0  0  0  0  0  0  0  0
  -11.3402  -23.3988   30.7739 C   0  0  0  0  0  0  0  0  0  0  0  0
  -11.4983  -23.7110   29.4734 C   0  0  0  0  0  0  0  0  0  0  0  0
  -10.6258  -24.6294   28.9028 N   0  0  0  0  0  0  0  0  0  0  0  0
  -10.5847  -25.2532   27.6797 C   0  0  0  0  0  0  0  0  0  0  0  0
  -11.6910  -25.9689   27.1087 C   0  0  0  0  0  0  0  0  0  0  0  0
  -12.5757  -25.4260   26.5205 O   0  0  0  0  0  0  0  0  0  0  0  0
  -11.5146  -27.3471   27.4764 N   0  0  0  0  0  0  0  0  0  0  0  0
  -12.3371  -28.4146   27.3430 C   0  0  0  0  0  0  0  0  0  0  0  0
  -12.1412  -29.6791   27.8434 C   0  0  0  0  0  0  0  0  0  0  0  0
  -13.1044  -30.5956   27.4981 N   0  0  0  0  0  0  0  0  0  0  0  0
  -14.0141  -29.9988   26.7570 C   0  0  0  0  0  0  0  0  0  0  0  0
  -13.7740  -28.3252   26.4600 S   0  0  0  0  0  0  0  0  0  0  0  0
   -9.2421  -25.5229   27.4967 C   0  0  0  0  0  0  0  0  0  0  0  0
   -8.6323  -25.5689   28.7196 N   0  0  0  0  0  0  0  0  0  0  0  0
   -9.5434  -25.1699   29.5809 C   0  0  0  0  0  0  0  0  0  0  0  0
   -9.5629  -25.0883   30.9976 C   0  0  0  0  0  0  0  0  0  0  0  0
   -9.3755  -23.9310   33.4068 H   0  0  0  0  0  0  0  0  0  0  0  0
  -10.8298  -24.9268   33.5686 H   0  0  0  0  0  0  0  0  0  0  0  0
  -10.9846  -23.1744   33.3797 H   0  0  0  0  0  0  0  0  0  0  0  0
  -11.9117  -22.6049   31.2423 H   0  0  0  0  0  0  0  0  0  0  0  0
  -12.2177  -23.2362   28.8185 H   0  0  0  0  0  0  0  0  0  0  0  0
  -10.6779  -27.4342   28.0460 H   0  0  0  0  0  0  0  0  0  0  0  0
  -11.3030  -30.0073   28.4386 H   0  0  0  0  0  0  0  0  0  0  0  0
  -14.8690  -30.5267   26.3542 H   0  0  0  0  0  0  0  0  0  0  0  0
   -8.7488  -25.9395   26.6274 H   0  0  0  0  0  0  0  0  0  0  0  0
   -8.8615  -25.6789   31.5797 H   0  0  0  0  0  0  0  0  0  0  0  0
  1  2  1  0
  2  3  1  0
  3  4  2  0
  4  5  1  0
  5  6  1  0
  6  7  1  0
  7  8  2  0
  7  9  1  0
  9 10  1  0
 10 11  2  0
 11 12  1  0
 12 13  2  0
 13 14  1  0
  6 15  2  0
 15 16  1  0
 16 17  2  0
 17 18  1  0
 18  2  2  0
 17  5  1  0
 14 10  1  0
  1 19  1  0
  1 20  1  0
  1 21  1  0
  3 22  1  0
  4 23  1  0
  9 24  1  0
 11 25  1  0
 13 26  1  0
 15 27  1  0
 18 28  1  0
M  END
>  <Energy>  (515) 
39.491145204619592

>  <compound_id>  (515) 
5532

>  <target_id>  (515) 
1

>  <reference_id>  (515) 
45

>  <inspiration_ids>  (515) 
[45, 88]

>  <energy_score>  (515) 
-29.212761030623284

>  <distance_score>  (515) 
4.589068531260753

>  <path>  (515) 
/opt/xchem-fragalysis-2/maxwin/BulkDock/SCRATCH/511018/C5532-P45/C5532-P45.minimised.mol

>  <scratch_subdir>  (515) 
/opt/xchem-fragalysis-2/maxwin/BulkDock/SCRATCH/511018/C5532-P45

>  <fragmenstein_runtime>  (515) 
9.07777452468872

>  <fragmenstein_outcome>  (515) 
too moved

>  <fragmenstein_mode>  (515) 
expansion

>  <fragmenstein_error>  (515) 


$$$$
C5532-P88
     RDKit          3D

 28 30  0  0  0  0  0  0  0  0999 V2000
   -8.8379  -23.4672   33.7690 C   0  0  0  0  0  0  0  0  0  0  0  0
   -9.6592  -23.1209   32.5715 C   0  0  0  0  0  0  0  0  0  0  0  0
  -10.9689  -22.5062   32.7679 C   0  0  0  0  0  0  0  0  0  0  0  0
  -11.7871  -22.3873   31.7035 C   0  0  0  0  0  0  0  0  0  0  0  0
  -11.3421  -22.7792   30.4530 N   0  0  0  0  0  0  0  0  0  0  0  0
  -11.9435  -23.0200   29.2306 C   0  0  0  0  0  0  0  0  0  0  0  0
  -12.5906  -24.2301   28.7289 C   0  0  0  0  0  0  0  0  0  0  0  0
  -13.4214  -24.1721   27.9152 O   0  0  0  0  0  0  0  0  0  0  0  0
  -11.9100  -25.4506   29.3746 N   0  0  0  0  0  0  0  0  0  0  0  0
  -12.0317  -26.7634   29.1052 C   0  0  0  0  0  0  0  0  0  0  0  0
  -12.0764  -27.3354   27.8676 C   0  0  0  0  0  0  0  0  0  0  0  0
  -11.4370  -28.5765   27.8184 N   0  0  0  0  0  0  0  0  0  0  0  0
  -11.0978  -28.9620   29.0232 C   0  0  0  0  0  0  0  0  0  0  0  0
  -11.6376  -27.9085   30.2567 S   0  0  0  0  0  0  0  0  0  0  0  0
  -10.9758  -22.4868   28.3801 C   0  0  0  0  0  0  0  0  0  0  0  0
   -9.7471  -22.7479   28.9423 N   0  0  0  0  0  0  0  0  0  0  0  0
  -10.0092  -23.0084   30.2038 C   0  0  0  0  0  0  0  0  0  0  0  0
   -9.2140  -23.3391   31.3168 C   0  0  0  0  0  0  0  0  0  0  0  0
   -8.6698  -22.5856   34.3919 H   0  0  0  0  0  0  0  0  0  0  0  0
   -7.8573  -23.8640   33.4877 H   0  0  0  0  0  0  0  0  0  0  0  0
   -9.3405  -24.2299   34.3709 H   0  0  0  0  0  0  0  0  0  0  0  0
  -11.2783  -22.1800   33.7569 H   0  0  0  0  0  0  0  0  0  0  0  0
  -12.7758  -21.9577   31.7577 H   0  0  0  0  0  0  0  0  0  0  0  0
  -11.2880  -25.1413   30.1071 H   0  0  0  0  0  0  0  0  0  0  0  0
  -12.3528  -26.8392   26.9437 H   0  0  0  0  0  0  0  0  0  0  0  0
  -10.5846  -29.8934   29.2262 H   0  0  0  0  0  0  0  0  0  0  0  0
  -11.0592  -22.3220   27.3108 H   0  0  0  0  0  0  0  0  0  0  0  0
   -8.2319  -23.7085   31.1217 H   0  0  0  0  0  0  0  0  0  0  0  0
  1  2  1  0
  2  3  1  0
  3  4  2  0
  4  5  1  0
  5  6  1  0
  6  7  1  0
  7  8  2  0
  7  9  1  0
  9 10  1  0
 10 11  2  0
 11 12  1  0
 12 13  2  0
 13 14  1  0
  6 15  2  0
 15 16  1  0
 16 17  2  0
 17 18  1  0
 18  2  2  0
 17  5  1  0
 14 10  1  0
  1 19  1  0
  1 20  1  0
  1 21  1  0
  3 22  1  0
  4 23  1  0
  9 24  1  0
 11 25  1  0
 13 26  1  0
 15 27  1  0
 18 28  1  0
M  END
>  <Energy>  (516) 
81.564787227323208

>  <compound_id>  (516) 
5532

>  <target_id>  (516) 
1

>  <reference_id>  (516) 
88

>  <inspiration_ids>  (516) 
[45, 88]

>  <energy_score>  (516) 
-17.61052976749886

>  <distance_score>  (516) 
3.4895776414223008

>  <path>  (516) 
/opt/xchem-fragalysis-2/maxwin/BulkDock/SCRATCH/511018/C5532-P88/C5532-P88.minimised.mol

>  <scratch_subdir>  (516) 
/opt/xchem-fragalysis-2/maxwin/BulkDock/SCRATCH/511018/C5532-P88

>  <fragmenstein_runtime>  (516) 
7.870060205459595

>  <fragmenstein_outcome>  (516) 
too moved

>  <fragmenstein_mode>  (516) 
expansion

>  <fragmenstein_error>  (516) 


$$$$
C5533-P45
     RDKit          3D

 28 30  0  0  0  0  0  0  0  0999 V2000
  -11.6975  -25.7178   29.1882 O   0  0  0  0  0  0  0  0  0  0  0  0
  -11.4231  -24.6403   28.8574 C   0  0  0  0  0  0  0  0  0  0  0  0
  -10.8119  -24.1312   27.5587 N   0  0  0  0  0  0  0  0  0  0  0  0
  -10.3284  -24.8293   26.4455 C   0  0  0  0  0  0  0  0  0  0  0  0
   -9.1029  -25.5333   26.8675 C   0  0  0  0  0  0  0  0  0  0  0  0
   -9.2868  -26.8774   26.9678 N   0  0  0  0  0  0  0  0  0  0  0  0
   -8.0903  -27.3694   26.8989 C   0  0  0  0  0  0  0  0  0  0  0  0
   -7.7180  -28.6596   26.5070 C   0  0  0  0  0  0  0  0  0  0  0  0
   -6.4323  -28.8687   26.2221 C   0  0  0  0  0  0  0  0  0  0  0  0
   -5.3963  -27.8942   26.5122 C   0  0  0  0  0  0  0  0  0  0  0  0
   -5.7568  -26.6620   26.8898 C   0  0  0  0  0  0  0  0  0  0  0  0
   -7.1136  -26.3946   27.0149 N   0  0  0  0  0  0  0  0  0  0  0  0
   -7.7898  -25.2097   27.1658 C   0  0  0  0  0  0  0  0  0  0  0  0
   -6.9910  -23.5477   27.5488 Br  0  0  0  0  0  0  0  0  0  0  0  0
  -11.5635  -23.5162   29.7323 C   0  0  0  0  0  0  0  0  0  0  0  0
  -11.8977  -22.2268   29.4225 C   0  0  0  0  0  0  0  0  0  0  0  0
  -11.9410  -21.3879   30.4895 N   0  0  0  0  0  0  0  0  0  0  0  0
  -11.6193  -22.0131   31.5922 C   0  0  0  0  0  0  0  0  0  0  0  0
  -11.1911  -23.6406   31.3878 S   0  0  0  0  0  0  0  0  0  0  0  0
  -10.6301  -23.1414   27.6378 H   0  0  0  0  0  0  0  0  0  0  0  0
  -11.1008  -25.5600   26.1744 H   0  0  0  0  0  0  0  0  0  0  0  0
  -10.2080  -24.1983   25.5765 H   0  0  0  0  0  0  0  0  0  0  0  0
   -8.4786  -29.4000   26.2869 H   0  0  0  0  0  0  0  0  0  0  0  0
   -6.1826  -29.7933   25.7271 H   0  0  0  0  0  0  0  0  0  0  0  0
   -4.3576  -28.1350   26.3402 H   0  0  0  0  0  0  0  0  0  0  0  0
   -5.0446  -25.8605   27.0333 H   0  0  0  0  0  0  0  0  0  0  0  0
  -12.1272  -21.8461   28.4384 H   0  0  0  0  0  0  0  0  0  0  0  0
  -11.6025  -21.5189   32.5555 H   0  0  0  0  0  0  0  0  0  0  0  0
  1  2  2  0
  2  3  1  0
  3  4  1  0
  4  5  1  0
  5  6  1  0
  6  7  2  0
  7  8  1  0
  8  9  2  0
  9 10  1  0
 10 11  2  0
 11 12  1  0
 12 13  1  0
 13 14  1  0
  2 15  1  0
 15 16  2  0
 16 17  1  0
 17 18  2  0
 18 19  1  0
 13  5  2  0
 19 15  1  0
 12  7  1  0
  3 20  1  0
  4 21  1  0
  4 22  1  0
  8 23  1  0
  9 24  1  0
 10 25  1  0
 11 26  1  0
 16 27  1  0
 18 28  1  0
M  END
>  <Energy>  (517) 
51.266383370080213

>  <compound_id>  (517) 
5533

>  <target_id>  (517) 
1

>  <reference_id>  (517) 
45

>  <inspiration_ids>  (517) 
[45, 88]

>  <energy_score>  (517) 
-1.3521868547960025

>  <distance_score>  (517) 
2.126326564278715

>  <path>  (517) 
/opt/xchem-fragalysis-2/maxwin/BulkDock/SCRATCH/511018/C5533-P45/C5533-P45.minimised.mol

>  <scratch_subdir>  (517) 
/opt/xchem-fragalysis-2/maxwin/BulkDock/SCRATCH/511018/C5533-P45

>  <fragmenstein_runtime>  (517) 
4.236277103424072

>  <fragmenstein_outcome>  (517) 
too moved

>  <fragmenstein_mode>  (517) 
expansion

>  <fragmenstein_error>  (517) 


$$$$
C5533-P88
     RDKit          3D

 28 30  0  0  0  0  0  0  0  0999 V2000
  -15.7881  -29.0938   30.5831 O   0  0  0  0  0  0  0  0  0  0  0  0
  -15.5688  -27.9948   30.1747 C   0  0  0  0  0  0  0  0  0  0  0  0
  -14.5523  -27.5132   29.3036 N   0  0  0  0  0  0  0  0  0  0  0  0
  -13.4176  -28.1754   28.7188 C   0  0  0  0  0  0  0  0  0  0  0  0
  -12.3978  -27.0961   28.5817 C   0  0  0  0  0  0  0  0  0  0  0  0
  -11.5594  -26.8139   29.6341 N   0  0  0  0  0  0  0  0  0  0  0  0
  -11.0217  -25.6494   29.3496 C   0  0  0  0  0  0  0  0  0  0  0  0
  -10.1671  -24.8210   30.1192 C   0  0  0  0  0  0  0  0  0  0  0  0
   -9.7727  -23.6392   29.6243 C   0  0  0  0  0  0  0  0  0  0  0  0
  -10.2242  -23.1688   28.3282 C   0  0  0  0  0  0  0  0  0  0  0  0
  -11.0140  -23.9565   27.5820 C   0  0  0  0  0  0  0  0  0  0  0  0
  -11.4126  -25.1860   28.0968 N   0  0  0  0  0  0  0  0  0  0  0  0
  -12.3105  -26.1070   27.6216 C   0  0  0  0  0  0  0  0  0  0  0  0
  -13.4421  -25.9587   26.0999 Br  0  0  0  0  0  0  0  0  0  0  0  0
  -16.3516  -26.8561   30.6504 C   0  0  0  0  0  0  0  0  0  0  0  0
  -16.8324  -25.7502   29.9729 C   0  0  0  0  0  0  0  0  0  0  0  0
  -17.3433  -24.7301   30.7611 N   0  0  0  0  0  0  0  0  0  0  0  0
  -17.3119  -25.1162   32.0218 C   0  0  0  0  0  0  0  0  0  0  0  0
  -16.6938  -26.6895   32.3217 S   0  0  0  0  0  0  0  0  0  0  0  0
  -14.7218  -26.5370   29.1083 H   0  0  0  0  0  0  0  0  0  0  0  0
  -13.0843  -28.9794   29.3808 H   0  0  0  0  0  0  0  0  0  0  0  0
  -13.7125  -28.6019   27.7566 H   0  0  0  0  0  0  0  0  0  0  0  0
   -9.8477  -25.1523   31.1005 H   0  0  0  0  0  0  0  0  0  0  0  0
   -9.1164  -23.0105   30.2120 H   0  0  0  0  0  0  0  0  0  0  0  0
   -9.9392  -22.1745   28.0060 H   0  0  0  0  0  0  0  0  0  0  0  0
  -11.4003  -23.6494   26.6179 H   0  0  0  0  0  0  0  0  0  0  0  0
  -16.7960  -25.6067   28.8984 H   0  0  0  0  0  0  0  0  0  0  0  0
  -17.6498  -24.4833   32.8339 H   0  0  0  0  0  0  0  0  0  0  0  0
  1  2  2  0
  2  3  1  0
  3  4  1  0
  4  5  1  0
  5  6  1  0
  6  7  2  0
  7  8  1  0
  8  9  2  0
  9 10  1  0
 10 11  2  0
 11 12  1  0
 12 13  1  0
 13 14  1  0
  2 15  1  0
 15 16  2  0
 16 17  1  0
 17 18  2  0
 18 19  1  0
 13  5  2  0
 19 15  1  0
 12  7  1  0
  3 20  1  0
  4 21  1  0
  4 22  1  0
  8 23  1  0
  9 24  1  0
 10 25  1  0
 11 26  1  0
 16 27  1  0
 18 28  1  0
M  END
>  <Energy>  (518) 
26.057077391296811

>  <compound_id>  (518) 
5533

>  <target_id>  (518) 
1

>  <reference_id>  (518) 
88

>  <inspiration_ids>  (518) 
[45, 88]

>  <energy_score>  (518) 
-32.759177157098236

>  <distance_score>  (518) 
6.31058577344036

>  <path>  (518) 
/opt/xchem-fragalysis-2/maxwin/BulkDock/SCRATCH/511018/C5533-P88/C5533-P88.minimised.mol

>  <scratch_subdir>  (518) 
/opt/xchem-fragalysis-2/maxwin/BulkDock/SCRATCH/511018/C5533-P88

>  <fragmenstein_runtime>  (518) 
6.213717699050903

>  <fragmenstein_outcome>  (518) 
too moved

>  <fragmenstein_mode>  (518) 
expansion

>  <fragmenstein_error>  (518) 


$$$$
C5534-P45
     RDKit          3D

 31 33  0  0  0  0  0  0  0  0999 V2000
   -8.7283  -23.5475   27.7510 O   0  0  0  0  0  0  0  0  0  0  0  0
   -8.8883  -24.6426   27.3902 C   0  0  0  0  0  0  0  0  0  0  0  0
   -9.9209  -25.2322   26.3971 N   0  0  0  0  0  0  0  0  0  0  0  0
  -11.0063  -24.6204   25.7316 C   0  0  0  0  0  0  0  0  0  0  0  0
  -12.1502  -24.4222   26.6679 C   0  0  0  0  0  0  0  0  0  0  0  0
  -11.8243  -23.7644   27.9571 C   0  0  0  0  0  0  0  0  0  0  0  0
  -11.6336  -22.4322   28.2280 C   0  0  0  0  0  0  0  0  0  0  0  0
  -11.5171  -22.0858   29.5527 N   0  0  0  0  0  0  0  0  0  0  0  0
  -11.4884  -23.1832   30.2651 C   0  0  0  0  0  0  0  0  0  0  0  0
  -11.6121  -24.6522   29.3946 S   0  0  0  0  0  0  0  0  0  0  0  0
   -8.1287  -25.7729   27.7923 C   0  0  0  0  0  0  0  0  0  0  0  0
   -8.8522  -26.8949   28.0801 N   0  0  0  0  0  0  0  0  0  0  0  0
   -8.2759  -27.7870   27.3326 C   0  0  0  0  0  0  0  0  0  0  0  0
   -8.8372  -28.9560   26.7892 C   0  0  0  0  0  0  0  0  0  0  0  0
   -8.0949  -29.6765   25.9495 C   0  0  0  0  0  0  0  0  0  0  0  0
   -6.7139  -29.3261   25.7004 C   0  0  0  0  0  0  0  0  0  0  0  0
   -6.1663  -28.2172   26.2229 C   0  0  0  0  0  0  0  0  0  0  0  0
   -6.9949  -27.3950   26.9499 N   0  0  0  0  0  0  0  0  0  0  0  0
   -6.8808  -26.0787   27.3050 C   0  0  0  0  0  0  0  0  0  0  0  0
   -5.4688  -24.8724   27.0498 Br  0  0  0  0  0  0  0  0  0  0  0  0
   -9.7260  -26.2126   26.2494 H   0  0  0  0  0  0  0  0  0  0  0  0
  -10.7229  -23.7257   25.2209 H   0  0  0  0  0  0  0  0  0  0  0  0
  -11.3250  -25.3164   24.9511 H   0  0  0  0  0  0  0  0  0  0  0  0
  -12.5773  -25.4121   26.8651 H   0  0  0  0  0  0  0  0  0  0  0  0
  -12.8843  -23.8270   26.1211 H   0  0  0  0  0  0  0  0  0  0  0  0
  -11.6090  -21.6715   27.4686 H   0  0  0  0  0  0  0  0  0  0  0  0
  -11.3537  -23.1585   31.3382 H   0  0  0  0  0  0  0  0  0  0  0  0
   -9.8613  -29.2215   27.0175 H   0  0  0  0  0  0  0  0  0  0  0  0
   -8.4919  -30.5673   25.4738 H   0  0  0  0  0  0  0  0  0  0  0  0
   -6.1929  -29.9888   25.0271 H   0  0  0  0  0  0  0  0  0  0  0  0
   -5.1561  -27.8864   26.0191 H   0  0  0  0  0  0  0  0  0  0  0  0
  1  2  2  0
  2  3  1  0
  3  4  1  0
  4  5  1  0
  5  6  1  0
  6  7  2  0
  7  8  1  0
  8  9  2  0
  9 10  1  0
  2 11  1  0
 11 12  1  0
 12 13  2  0
 13 14  1  0
 14 15  2  0
 15 16  1  0
 16 17  2  0
 17 18  1  0
 18 19  1  0
 19 20  1  0
 10  6  1  0
 19 11  2  0
 18 13  1  0
  3 21  1  0
  4 22  1  0
  4 23  1  0
  5 24  1  0
  5 25  1  0
  7 26  1  0
  9 27  1  0
 14 28  1  0
 15 29  1  0
 16 30  1  0
 17 31  1  0
M  END
>  <Energy>  (519) 
103.26159771825772

>  <compound_id>  (519) 
5534

>  <target_id>  (519) 
1

>  <reference_id>  (519) 
45

>  <inspiration_ids>  (519) 
[45, 88]

>  <energy_score>  (519) 
-17.654243122193634

>  <distance_score>  (519) 
1.4704581329759299

>  <path>  (519) 
/opt/xchem-fragalysis-2/maxwin/BulkDock/SCRATCH/511018/C5534-P45/C5534-P45.minimised.mol

>  <scratch_subdir>  (519) 
/opt/xchem-fragalysis-2/maxwin/BulkDock/SCRATCH/511018/C5534-P45

>  <fragmenstein_runtime>  (519) 
3.0592637062072754

>  <fragmenstein_outcome>  (519) 
too moved

>  <fragmenstein_mode>  (519) 
expansion

>  <fragmenstein_error>  (519) 


$$$$
C5534-P88
     RDKit          3D

 31 33  0  0  0  0  0  0  0  0999 V2000
  -13.3780  -26.9959   30.3611 O   0  0  0  0  0  0  0  0  0  0  0  0
  -12.9726  -27.1762   29.2828 C   0  0  0  0  0  0  0  0  0  0  0  0
  -13.3320  -26.4861   27.9514 N   0  0  0  0  0  0  0  0  0  0  0  0
  -14.1918  -25.3698   27.6828 C   0  0  0  0  0  0  0  0  0  0  0  0
  -13.3432  -24.2241   27.0981 C   0  0  0  0  0  0  0  0  0  0  0  0
  -12.3379  -23.5657   28.0147 C   0  0  0  0  0  0  0  0  0  0  0  0
  -11.3742  -22.6372   27.6668 C   0  0  0  0  0  0  0  0  0  0  0  0
  -10.5320  -22.2137   28.6749 N   0  0  0  0  0  0  0  0  0  0  0  0
  -10.8984  -22.7662   29.8060 C   0  0  0  0  0  0  0  0  0  0  0  0
  -12.2119  -23.8367   29.7000 S   0  0  0  0  0  0  0  0  0  0  0  0
  -11.8810  -28.1088   28.9954 C   0  0  0  0  0  0  0  0  0  0  0  0
  -11.9982  -29.4649   28.9135 N   0  0  0  0  0  0  0  0  0  0  0  0
  -10.9072  -29.9018   28.3210 C   0  0  0  0  0  0  0  0  0  0  0  0
  -10.6339  -31.1499   27.7049 C   0  0  0  0  0  0  0  0  0  0  0  0
   -9.5062  -31.3328   26.9965 C   0  0  0  0  0  0  0  0  0  0  0  0
   -8.5266  -30.2807   26.8628 C   0  0  0  0  0  0  0  0  0  0  0  0
   -8.7332  -29.1172   27.5022 C   0  0  0  0  0  0  0  0  0  0  0  0
   -9.9413  -28.9208   28.2143 N   0  0  0  0  0  0  0  0  0  0  0  0
  -10.6693  -27.7441   28.4543 C   0  0  0  0  0  0  0  0  0  0  0  0
  -10.2815  -25.9971   27.7393 Br  0  0  0  0  0  0  0  0  0  0  0  0
  -12.7270  -26.8342   27.2156 H   0  0  0  0  0  0  0  0  0  0  0  0
  -14.9283  -25.6991   26.9436 H   0  0  0  0  0  0  0  0  0  0  0  0
  -14.7148  -25.0792   28.5983 H   0  0  0  0  0  0  0  0  0  0  0  0
  -14.0266  -23.4557   26.7194 H   0  0  0  0  0  0  0  0  0  0  0  0
  -12.8035  -24.5977   26.2179 H   0  0  0  0  0  0  0  0  0  0  0  0
  -11.2474  -22.2433   26.6687 H   0  0  0  0  0  0  0  0  0  0  0  0
  -10.4034  -22.5592   30.7455 H   0  0  0  0  0  0  0  0  0  0  0  0
  -11.3646  -31.9452   27.8095 H   0  0  0  0  0  0  0  0  0  0  0  0
   -9.2986  -32.2856   26.5165 H   0  0  0  0  0  0  0  0  0  0  0  0
   -7.6932  -30.4457   26.1879 H   0  0  0  0  0  0  0  0  0  0  0  0
   -8.0830  -28.2691   27.3379 H   0  0  0  0  0  0  0  0  0  0  0  0
  1  2  2  0
  2  3  1  0
  3  4  1  0
  4  5  1  0
  5  6  1  0
  6  7  2  0
  7  8  1  0
  8  9  2  0
  9 10  1  0
  2 11  1  0
 11 12  1  0
 12 13  2  0
 13 14  1  0
 14 15  2  0
 15 16  1  0
 16 17  2  0
 17 18  1  0
 18 19  1  0
 19 20  1  0
 10  6  1  0
 19 11  2  0
 18 13  1  0
  3 21  1  0
  4 22  1  0
  4 23  1  0
  5 24  1  0
  5 25  1  0
  7 26  1  0
  9 27  1  0
 14 28  1  0
 15 29  1  0
 16 30  1  0
 17 31  1  0
M  END
>  <Energy>  (520) 
92.740904894253006

>  <compound_id>  (520) 
5534

>  <target_id>  (520) 
1

>  <reference_id>  (520) 
88

>  <inspiration_ids>  (520) 
[45, 88]

>  <energy_score>  (520) 
-28.174935946200918

>  <distance_score>  (520) 
3.7680493910260093

>  <path>  (520) 
/opt/xchem-fragalysis-2/maxwin/BulkDock/SCRATCH/511018/C5534-P88/C5534-P88.minimised.mol

>  <scratch_subdir>  (520) 
/opt/xchem-fragalysis-2/maxwin/BulkDock/SCRATCH/511018/C5534-P88

>  <fragmenstein_runtime>  (520) 
4.214130401611328

>  <fragmenstein_outcome>  (520) 
too moved

>  <fragmenstein_mode>  (520) 
expansion

>  <fragmenstein_error>  (520) 


$$$$
C5535-P45
     RDKit          3D

 38 40  0  0  0  0  0  0  0  0999 V2000
  -15.5061  -26.9532   24.3916 C   0  0  0  0  0  0  0  0  0  0  0  0
  -14.3656  -26.1158   24.2347 O   0  0  0  0  0  0  0  0  0  0  0  0
  -13.3066  -26.4785   25.1087 C   0  0  0  0  0  0  0  0  0  0  0  0
  -12.2728  -25.0962   25.3917 C   0  0  0  0  0  0  0  0  0  0  0  0
  -11.0243  -25.8693   26.6699 N   0  0  0  0  0  0  0  0  0  0  0  0
  -11.6892  -24.9993   25.9570 C   0  0  0  0  0  0  0  0  0  0  0  0
  -11.8110  -23.9905   27.4852 C   0  0  0  0  0  0  0  0  0  0  0  0
  -11.6418  -22.6209   27.6239 C   0  0  0  0  0  0  0  0  0  0  0  0
  -11.7048  -22.0998   28.8969 N   0  0  0  0  0  0  0  0  0  0  0  0
  -11.8861  -23.0757   29.7432 C   0  0  0  0  0  0  0  0  0  0  0  0
  -12.1087  -24.6188   29.0548 S   0  0  0  0  0  0  0  0  0  0  0  0
  -11.3379  -27.2576   27.4141 C   0  0  0  0  0  0  0  0  0  0  0  0
  -12.2602  -27.9370   27.4417 O   0  0  0  0  0  0  0  0  0  0  0  0
  -10.0827  -27.4365   28.2175 C   0  0  0  0  0  0  0  0  0  0  0  0
  -10.5243  -27.5026   29.4972 C   0  0  0  0  0  0  0  0  0  0  0  0
   -9.9029  -26.6534   30.4937 C   0  0  0  0  0  0  0  0  0  0  0  0
   -9.2031  -25.5673   30.1129 C   0  0  0  0  0  0  0  0  0  0  0  0
   -8.6962  -25.5028   28.7747 C   0  0  0  0  0  0  0  0  0  0  0  0
   -7.7937  -24.7375   28.1909 N   0  0  0  0  0  0  0  0  0  0  0  0
   -7.2866  -25.5207   27.1663 C   0  0  0  0  0  0  0  0  0  0  0  0
   -7.9224  -26.7401   27.1401 C   0  0  0  0  0  0  0  0  0  0  0  0
   -7.3570  -28.3752   26.3737 Br  0  0  0  0  0  0  0  0  0  0  0  0
   -8.9854  -26.6061   27.9831 N   0  0  0  0  0  0  0  0  0  0  0  0
  -15.2370  -28.0021   24.2461 H   0  0  0  0  0  0  0  0  0  0  0  0
  -16.2450  -26.6718   23.6368 H   0  0  0  0  0  0  0  0  0  0  0  0
  -15.9476  -26.8115   25.3825 H   0  0  0  0  0  0  0  0  0  0  0  0
  -13.7149  -26.8033   26.0666 H   0  0  0  0  0  0  0  0  0  0  0  0
  -12.7009  -27.2715   24.6605 H   0  0  0  0  0  0  0  0  0  0  0  0
  -11.9230  -24.9833   24.2347 H   0  0  0  0  0  0  0  0  0  0  0  0
  -13.1994  -24.2734   25.5567 H   0  0  0  0  0  0  0  0  0  0  0  0
  -10.5006  -25.0032   25.4795 H   0  0  0  0  0  0  0  0  0  0  0  0
  -11.1671  -23.8134   25.7111 H   0  0  0  0  0  0  0  0  0  0  0  0
  -11.4728  -21.9346   26.8112 H   0  0  0  0  0  0  0  0  0  0  0  0
  -11.9051  -22.8960   30.8074 H   0  0  0  0  0  0  0  0  0  0  0  0
  -11.4836  -27.9413   29.7677 H   0  0  0  0  0  0  0  0  0  0  0  0
  -10.1171  -26.8347   31.5403 H   0  0  0  0  0  0  0  0  0  0  0  0
   -8.8218  -24.9024   30.8692 H   0  0  0  0  0  0  0  0  0  0  0  0
   -6.4142  -25.2048   26.6093 H   0  0  0  0  0  0  0  0  0  0  0  0
  1  2  1  0
  2  3  1  0
  3  4  1  0
  4  5  1  0
  5  6  1  0
  6  7  1  0
  7  8  2  0
  8  9  1  0
  9 10  2  0
 10 11  1  0
  5 12  1  0
 12 13  2  0
 12 14  1  0
 14 15  2  0
 15 16  1  0
 16 17  2  0
 17 18  1  0
 18 19  2  0
 19 20  1  0
 20 21  2  0
 21 22  1  0
 21 23  1  0
 11  7  1  0
 23 14  1  0
 23 18  1  0
  1 24  1  0
  1 25  1  0
  1 26  1  0
  3 27  1  0
  3 28  1  0
  4 29  1  0
  4 30  1  0
  6 31  1  0
  6 32  1  0
  8 33  1  0
 10 34  1  0
 15 35  1  0
 16 36  1  0
 17 37  1  0
 20 38  1  0
M  END
>  <Energy>  (521) 
837.57893600542536

>  <compound_id>  (521) 
5535

>  <target_id>  (521) 
1

>  <reference_id>  (521) 
45

>  <inspiration_ids>  (521) 
[45, 88]

>  <energy_score>  (521) 
737.1532443648673

>  <distance_score>  (521) 
3.0725019960047417

>  <path>  (521) 
/opt/xchem-fragalysis-2/maxwin/BulkDock/SCRATCH/511018/C5535-P45/C5535-P45.minimised.mol

>  <scratch_subdir>  (521) 
/opt/xchem-fragalysis-2/maxwin/BulkDock/SCRATCH/511018/C5535-P45

>  <fragmenstein_runtime>  (521) 
6.661189556121826

>  <fragmenstein_outcome>  (521) 
too moved

>  <fragmenstein_mode>  (521) 
expansion

>  <fragmenstein_error>  (521) 


$$$$
C5535-P88
     RDKit          3D

 38 40  0  0  0  0  0  0  0  0999 V2000
  -13.6806  -28.4933   31.9039 C   0  0  0  0  0  0  0  0  0  0  0  0
  -13.3614  -27.4640   30.9733 O   0  0  0  0  0  0  0  0  0  0  0  0
  -12.4784  -27.9399   29.9600 C   0  0  0  0  0  0  0  0  0  0  0  0
  -12.1443  -26.5941   28.8898 C   0  0  0  0  0  0  0  0  0  0  0  0
  -10.4374  -26.9583   28.0138 N   0  0  0  0  0  0  0  0  0  0  0  0
  -11.7288  -26.6991   28.2026 C   0  0  0  0  0  0  0  0  0  0  0  0
  -11.6704  -24.8834   27.7135 C   0  0  0  0  0  0  0  0  0  0  0  0
  -12.3785  -24.2346   26.7225 C   0  0  0  0  0  0  0  0  0  0  0  0
  -12.1627  -22.8851   26.6606 N   0  0  0  0  0  0  0  0  0  0  0  0
  -11.3224  -22.5110   27.6011 C   0  0  0  0  0  0  0  0  0  0  0  0
  -10.7493  -23.7408   28.6371 S   0  0  0  0  0  0  0  0  0  0  0  0
   -9.6320  -26.4533   26.6125 C   0  0  0  0  0  0  0  0  0  0  0  0
   -9.9601  -25.7891   25.7247 O   0  0  0  0  0  0  0  0  0  0  0  0
   -7.8309  -27.2970   26.4623 C   0  0  0  0  0  0  0  0  0  0  0  0
   -7.6728  -28.6057   25.9755 C   0  0  0  0  0  0  0  0  0  0  0  0
   -8.3838  -29.3927   26.8863 C   0  0  0  0  0  0  0  0  0  0  0  0
   -8.5302  -28.5896   27.9369 C   0  0  0  0  0  0  0  0  0  0  0  0
   -7.8591  -26.8604   27.8084 C   0  0  0  0  0  0  0  0  0  0  0  0
   -8.0951  -25.7221   28.4909 N   0  0  0  0  0  0  0  0  0  0  0  0
   -6.8639  -25.2305   28.9932 C   0  0  0  0  0  0  0  0  0  0  0  0
   -5.3294  -25.6875   28.4065 C   0  0  0  0  0  0  0  0  0  0  0  0
   -3.4879  -23.6817   28.0446 Br  0  0  0  0  0  0  0  0  0  0  0  0
   -6.3991  -26.7107   27.1933 N   0  0  0  0  0  0  0  0  0  0  0  0
  -12.7756  -28.8420   32.4108 H   0  0  0  0  0  0  0  0  0  0  0  0
  -14.1758  -29.3270   31.3971 H   0  0  0  0  0  0  0  0  0  0  0  0
  -14.3640  -28.0811   32.6509 H   0  0  0  0  0  0  0  0  0  0  0  0
  -11.5322  -28.2749   30.3950 H   0  0  0  0  0  0  0  0  0  0  0  0
  -12.9466  -28.7458   29.3824 H   0  0  0  0  0  0  0  0  0  0  0  0
  -13.3271  -26.1836   28.5745 H   0  0  0  0  0  0  0  0  0  0  0  0
  -11.8698  -25.8779   29.8283 H   0  0  0  0  0  0  0  0  0  0  0  0
  -12.0461  -26.5706   27.0175 H   0  0  0  0  0  0  0  0  0  0  0  0
  -12.1673  -27.7437   27.5898 H   0  0  0  0  0  0  0  0  0  0  0  0
  -13.0566  -24.6952   26.0171 H   0  0  0  0  0  0  0  0  0  0  0  0
  -11.0257  -21.4769   27.7243 H   0  0  0  0  0  0  0  0  0  0  0  0
   -6.7330  -29.0075   25.6076 H   0  0  0  0  0  0  0  0  0  0  0  0
   -8.6880  -30.4185   26.7841 H   0  0  0  0  0  0  0  0  0  0  0  0
   -9.1630  -28.9514   28.7460 H   0  0  0  0  0  0  0  0  0  0  0  0
   -7.1256  -24.2744   29.4374 H   0  0  0  0  0  0  0  0  0  0  0  0
  1  2  1  0
  2  3  1  0
  3  4  1  0
  4  5  1  0
  5  6  1  0
  6  7  1  0
  7  8  2  0
  8  9  1  0
  9 10  2  0
 10 11  1  0
  5 12  1  0
 12 13  2  0
 12 14  1  0
 14 15  2  0
 15 16  1  0
 16 17  2  0
 17 18  1  0
 18 19  2  0
 19 20  1  0
 20 21  2  0
 21 22  1  0
 21 23  1  0
 11  7  1  0
 23 14  1  0
 23 18  1  0
  1 24  1  0
  1 25  1  0
  1 26  1  0
  3 27  1  0
  3 28  1  0
  4 29  1  0
  4 30  1  0
  6 31  1  0
  6 32  1  0
  8 33  1  0
 10 34  1  0
 15 35  1  0
 16 36  1  0
 17 37  1  0
 20 38  1  0
M  END
>  <Energy>  (522) 
1591.5162363769189

>  <compound_id>  (522) 
5535

>  <target_id>  (522) 
1

>  <reference_id>  (522) 
88

>  <inspiration_ids>  (522) 
[45, 88]

>  <energy_score>  (522) 
1491.0905447363693

>  <distance_score>  (522) 
2.3234273158074683

>  <path>  (522) 
/opt/xchem-fragalysis-2/maxwin/BulkDock/SCRATCH/511018/C5535-P88/C5535-P88.minimised.mol

>  <scratch_subdir>  (522) 
/opt/xchem-fragalysis-2/maxwin/BulkDock/SCRATCH/511018/C5535-P88

>  <fragmenstein_runtime>  (522) 
8.058215856552124

>  <fragmenstein_outcome>  (522) 
too moved

>  <fragmenstein_mode>  (522) 
expansion

>  <fragmenstein_error>  (522) 


$$$$
C5536-P45
     RDKit          3D

 31 33  0  0  0  0  0  0  0  0999 V2000
  -10.0713  -24.9363   25.5209 O   0  0  0  0  0  0  0  0  0  0  0  0
  -10.2340  -24.4921   26.5947 C   0  0  0  0  0  0  0  0  0  0  0  0
  -11.6431  -24.4609   27.1689 C   0  0  0  0  0  0  0  0  0  0  0  0
  -11.7395  -23.6023   28.3589 C   0  0  0  0  0  0  0  0  0  0  0  0
  -11.7716  -22.2357   28.4172 C   0  0  0  0  0  0  0  0  0  0  0  0
  -11.7788  -21.6833   29.6712 N   0  0  0  0  0  0  0  0  0  0  0  0
  -11.6702  -22.6348   30.5614 C   0  0  0  0  0  0  0  0  0  0  0  0
  -11.5201  -24.2102   29.9214 S   0  0  0  0  0  0  0  0  0  0  0  0
   -9.1941  -23.9723   27.6466 N   0  0  0  0  0  0  0  0  0  0  0  0
   -7.7640  -23.9854   27.6224 C   0  0  0  0  0  0  0  0  0  0  0  0
   -7.4864  -25.4167   27.5410 C   0  0  0  0  0  0  0  0  0  0  0  0
   -8.5020  -26.3087   27.8340 N   0  0  0  0  0  0  0  0  0  0  0  0
   -8.1552  -27.3936   27.2047 C   0  0  0  0  0  0  0  0  0  0  0  0
   -8.9140  -28.5298   26.8501 C   0  0  0  0  0  0  0  0  0  0  0  0
   -8.3245  -29.4944   26.1303 C   0  0  0  0  0  0  0  0  0  0  0  0
   -6.9307  -29.3928   25.7513 C   0  0  0  0  0  0  0  0  0  0  0  0
   -6.1888  -28.3577   26.1615 C   0  0  0  0  0  0  0  0  0  0  0  0
   -6.8255  -27.3387   26.8221 N   0  0  0  0  0  0  0  0  0  0  0  0
   -6.3754  -26.0954   27.1355 C   0  0  0  0  0  0  0  0  0  0  0  0
   -4.6290  -25.4678   27.0492 Br  0  0  0  0  0  0  0  0  0  0  0  0
  -11.9427  -25.4924   27.3859 H   0  0  0  0  0  0  0  0  0  0  0  0
  -12.3034  -24.0761   26.3831 H   0  0  0  0  0  0  0  0  0  0  0  0
  -11.7534  -21.6110   27.5412 H   0  0  0  0  0  0  0  0  0  0  0  0
  -11.6357  -22.4239   31.6232 H   0  0  0  0  0  0  0  0  0  0  0  0
   -9.6679  -23.7347   28.4981 H   0  0  0  0  0  0  0  0  0  0  0  0
   -7.3706  -23.5303   28.5287 H   0  0  0  0  0  0  0  0  0  0  0  0
   -7.3893  -23.4665   26.7411 H   0  0  0  0  0  0  0  0  0  0  0  0
   -9.9546  -28.5880   27.1404 H   0  0  0  0  0  0  0  0  0  0  0  0
   -8.8645  -30.3848   25.8269 H   0  0  0  0  0  0  0  0  0  0  0  0
   -6.5233  -30.1484   25.0936 H   0  0  0  0  0  0  0  0  0  0  0  0
   -5.1515  -28.2144   25.8958 H   0  0  0  0  0  0  0  0  0  0  0  0
  1  2  2  0
  2  3  1  0
  3  4  1  0
  4  5  2  0
  5  6  1  0
  6  7  2  0
  7  8  1  0
  2  9  1  0
  9 10  1  0
 10 11  1  0
 11 12  1  0
 12 13  2  0
 13 14  1  0
 14 15  2  0
 15 16  1  0
 16 17  2  0
 17 18  1  0
 18 19  1  0
 19 20  1  0
  8  4  1  0
 19 11  2  0
 18 13  1  0
  3 21  1  0
  3 22  1  0
  5 23  1  0
  7 24  1  0
  9 25  1  0
 10 26  1  0
 10 27  1  0
 14 28  1  0
 15 29  1  0
 16 30  1  0
 17 31  1  0
M  END
>  <Energy>  (523) 
74.440185801907504

>  <compound_id>  (523) 
5536

>  <target_id>  (523) 
1

>  <reference_id>  (523) 
45

>  <inspiration_ids>  (523) 
[45, 88]

>  <energy_score>  (523) 
-10.397289314197792

>  <distance_score>  (523) 
1.4881071951435403

>  <path>  (523) 
/opt/xchem-fragalysis-2/maxwin/BulkDock/SCRATCH/511018/C5536-P45/C5536-P45.minimised.mol

>  <scratch_subdir>  (523) 
/opt/xchem-fragalysis-2/maxwin/BulkDock/SCRATCH/511018/C5536-P45

>  <fragmenstein_runtime>  (523) 
4.438270807266235

>  <fragmenstein_outcome>  (523) 
too moved

>  <fragmenstein_mode>  (523) 
expansion

>  <fragmenstein_error>  (523) 


$$$$
C5536-P88
     RDKit          3D

 31 33  0  0  0  0  0  0  0  0999 V2000
  -14.7577  -22.3525   25.2599 O   0  0  0  0  0  0  0  0  0  0  0  0
  -14.2136  -23.3440   25.5270 C   0  0  0  0  0  0  0  0  0  0  0  0
  -14.9134  -24.6275   25.9733 C   0  0  0  0  0  0  0  0  0  0  0  0
  -14.4379  -25.0454   27.3490 C   0  0  0  0  0  0  0  0  0  0  0  0
  -13.6360  -24.4069   28.2779 C   0  0  0  0  0  0  0  0  0  0  0  0
  -13.4627  -25.0417   29.4750 N   0  0  0  0  0  0  0  0  0  0  0  0
  -14.0619  -26.2054   29.4257 C   0  0  0  0  0  0  0  0  0  0  0  0
  -14.8340  -26.5936   27.9604 S   0  0  0  0  0  0  0  0  0  0  0  0
  -12.7125  -23.6622   25.6252 N   0  0  0  0  0  0  0  0  0  0  0  0
  -11.5672  -22.8042   25.5083 C   0  0  0  0  0  0  0  0  0  0  0  0
  -10.6550  -23.5041   26.4898 C   0  0  0  0  0  0  0  0  0  0  0  0
  -10.6485  -24.8991   26.4042 N   0  0  0  0  0  0  0  0  0  0  0  0
  -10.4738  -25.3056   27.6353 C   0  0  0  0  0  0  0  0  0  0  0  0
  -10.9729  -26.4614   28.2759 C   0  0  0  0  0  0  0  0  0  0  0  0
  -10.9475  -26.5167   29.6163 C   0  0  0  0  0  0  0  0  0  0  0  0
  -10.2647  -25.4918   30.4011 C   0  0  0  0  0  0  0  0  0  0  0  0
   -9.7365  -24.4277   29.7864 C   0  0  0  0  0  0  0  0  0  0  0  0
   -9.9855  -24.2851   28.4361 N   0  0  0  0  0  0  0  0  0  0  0  0
  -10.2627  -23.1233   27.7578 C   0  0  0  0  0  0  0  0  0  0  0  0
  -10.8000  -21.4925   28.6141 Br  0  0  0  0  0  0  0  0  0  0  0  0
  -14.7120  -25.4119   25.2351 H   0  0  0  0  0  0  0  0  0  0  0  0
  -15.9932  -24.4429   25.9976 H   0  0  0  0  0  0  0  0  0  0  0  0
  -13.1219  -23.4731   28.1332 H   0  0  0  0  0  0  0  0  0  0  0  0
  -14.0633  -26.9005   30.2545 H   0  0  0  0  0  0  0  0  0  0  0  0
  -12.5883  -24.6122   25.9640 H   0  0  0  0  0  0  0  0  0  0  0  0
  -11.8385  -21.7964   25.7755 H   0  0  0  0  0  0  0  0  0  0  0  0
  -11.1656  -22.8228   24.4957 H   0  0  0  0  0  0  0  0  0  0  0  0
  -11.5485  -27.1803   27.7141 H   0  0  0  0  0  0  0  0  0  0  0  0
  -11.4258  -27.3325   30.1472 H   0  0  0  0  0  0  0  0  0  0  0  0
  -10.2354  -25.5719   31.4826 H   0  0  0  0  0  0  0  0  0  0  0  0
   -9.3032  -23.5957   30.3268 H   0  0  0  0  0  0  0  0  0  0  0  0
  1  2  2  0
  2  3  1  0
  3  4  1  0
  4  5  2  0
  5  6  1  0
  6  7  2  0
  7  8  1  0
  2  9  1  0
  9 10  1  0
 10 11  1  0
 11 12  1  0
 12 13  2  0
 13 14  1  0
 14 15  2  0
 15 16  1  0
 16 17  2  0
 17 18  1  0
 18 19  1  0
 19 20  1  0
  8  4  1  0
 19 11  2  0
 18 13  1  0
  3 21  1  0
  3 22  1  0
  5 23  1  0
  7 24  1  0
  9 25  1  0
 10 26  1  0
 10 27  1  0
 14 28  1  0
 15 29  1  0
 16 30  1  0
 17 31  1  0
M  END
>  <Energy>  (524) 
84.892147169002413

>  <compound_id>  (524) 
5536

>  <target_id>  (524) 
1

>  <reference_id>  (524) 
88

>  <inspiration_ids>  (524) 
[45, 88]

>  <energy_score>  (524) 
0.05467205289676258

>  <distance_score>  (524) 
4.42370764385459

>  <path>  (524) 
/opt/xchem-fragalysis-2/maxwin/BulkDock/SCRATCH/511018/C5536-P88/C5536-P88.minimised.mol

>  <scratch_subdir>  (524) 
/opt/xchem-fragalysis-2/maxwin/BulkDock/SCRATCH/511018/C5536-P88

>  <fragmenstein_runtime>  (524) 
4.2279372215271

>  <fragmenstein_outcome>  (524) 
too moved

>  <fragmenstein_mode>  (524) 
expansion

>  <fragmenstein_error>  (524) 


$$$$
C5537-P45
     RDKit          3D

 37 39  0  0  0  0  0  0  0  0999 V2000
   -4.9746  -24.7021   27.3606 C   0  0  0  0  0  0  0  0  0  0  0  0
   -6.3356  -25.2104   27.3078 C   0  0  0  0  0  0  0  0  0  0  0  0
   -7.5215  -24.5866   27.6009 C   0  0  0  0  0  0  0  0  0  0  0  0
   -8.5456  -25.4805   27.5485 N   0  0  0  0  0  0  0  0  0  0  0  0
   -8.0062  -26.6403   27.2134 C   0  0  0  0  0  0  0  0  0  0  0  0
   -8.6081  -27.9142   26.9499 C   0  0  0  0  0  0  0  0  0  0  0  0
  -10.0809  -28.1417   26.8658 C   0  0  0  0  0  0  0  0  0  0  0  0
  -10.5926  -29.1831   26.9308 O   0  0  0  0  0  0  0  0  0  0  0  0
  -10.6747  -26.7607   26.5855 N   0  0  0  0  0  0  0  0  0  0  0  0
  -12.0218  -26.3539   26.4176 C   0  0  0  0  0  0  0  0  0  0  0  0
  -11.9780  -24.8136   26.3788 C   0  0  0  0  0  0  0  0  0  0  0  0
  -11.7046  -24.0752   27.6710 C   0  0  0  0  0  0  0  0  0  0  0  0
  -11.6017  -22.7069   27.8357 C   0  0  0  0  0  0  0  0  0  0  0  0
  -11.5057  -22.2354   29.1261 N   0  0  0  0  0  0  0  0  0  0  0  0
  -11.4621  -23.2569   29.9405 C   0  0  0  0  0  0  0  0  0  0  0  0
  -11.4302  -24.7923   29.1999 S   0  0  0  0  0  0  0  0  0  0  0  0
  -13.0166  -26.9485   27.4097 C   0  0  0  0  0  0  0  0  0  0  0  0
  -14.2250  -26.7587   27.3316 O   0  0  0  0  0  0  0  0  0  0  0  0
  -12.5266  -27.6753   28.4248 O   0  0  0  0  0  0  0  0  0  0  0  0
   -7.8533  -28.9181   26.4851 C   0  0  0  0  0  0  0  0  0  0  0  0
   -6.4482  -28.7241   26.2625 C   0  0  0  0  0  0  0  0  0  0  0  0
   -5.8471  -27.5679   26.5718 C   0  0  0  0  0  0  0  0  0  0  0  0
   -6.6432  -26.5165   27.0065 N   0  0  0  0  0  0  0  0  0  0  0  0
   -4.4245  -25.0532   26.4902 H   0  0  0  0  0  0  0  0  0  0  0  0
   -4.4616  -25.0493   28.2511 H   0  0  0  0  0  0  0  0  0  0  0  0
   -4.9974  -23.6137   27.4121 H   0  0  0  0  0  0  0  0  0  0  0  0
   -7.6830  -23.5525   27.8805 H   0  0  0  0  0  0  0  0  0  0  0  0
   -9.9495  -26.0527   26.6849 H   0  0  0  0  0  0  0  0  0  0  0  0
  -12.3165  -26.7360   25.4326 H   0  0  0  0  0  0  0  0  0  0  0  0
  -11.1916  -24.5068   25.6713 H   0  0  0  0  0  0  0  0  0  0  0  0
  -12.8906  -24.4263   25.9237 H   0  0  0  0  0  0  0  0  0  0  0  0
  -11.6297  -21.9959   27.0241 H   0  0  0  0  0  0  0  0  0  0  0  0
  -11.3934  -23.1278   31.0120 H   0  0  0  0  0  0  0  0  0  0  0  0
  -13.3091  -27.9433   28.9482 H   0  0  0  0  0  0  0  0  0  0  0  0
   -8.2800  -29.8743   26.1877 H   0  0  0  0  0  0  0  0  0  0  0  0
   -5.9642  -29.5423   25.7688 H   0  0  0  0  0  0  0  0  0  0  0  0
   -4.7929  -27.3870   26.4013 H   0  0  0  0  0  0  0  0  0  0  0  0
  1  2  1  0
  2  3  2  0
  3  4  1  0
  4  5  2  0
  5  6  1  0
  6  7  1  0
  7  8  2  0
  7  9  1  0
  9 10  1  0
 10 11  1  0
 11 12  1  0
 12 13  2  0
 13 14  1  0
 14 15  2  0
 15 16  1  0
 10 17  1  0
 17 18  2  0
 17 19  1  0
  6 20  2  0
 20 21  1  0
 21 22  2  0
 22 23  1  0
 23  2  1  0
 23  5  1  0
 16 12  1  0
  1 24  1  0
  1 25  1  0
  1 26  1  0
  3 27  1  0
  9 28  1  0
 10 29  1  0
 11 30  1  0
 11 31  1  0
 13 32  1  0
 15 33  1  0
 19 34  1  0
 20 35  1  0
 21 36  1  0
 22 37  1  0
M  END
>  <Energy>  (525) 
62.458226276350942

>  <compound_id>  (525) 
5537

>  <target_id>  (525) 
1

>  <reference_id>  (525) 
45

>  <inspiration_ids>  (525) 
[45, 88]

>  <energy_score>  (525) 
-68.3462485253956

>  <distance_score>  (525) 
0.804778283873169

>  <path>  (525) 
/opt/xchem-fragalysis-2/maxwin/BulkDock/SCRATCH/511018/C5537-P45/C5537-P45.minimised.mol

>  <scratch_subdir>  (525) 
/opt/xchem-fragalysis-2/maxwin/BulkDock/SCRATCH/511018/C5537-P45

>  <fragmenstein_runtime>  (525) 
3.7339484691619873

>  <fragmenstein_outcome>  (525) 
acceptable

>  <fragmenstein_mode>  (525) 
expansion

>  <fragmenstein_error>  (525) 


$$$$
C5537-P88
     RDKit          3D

 37 39  0  0  0  0  0  0  0  0999 V2000
   -9.2227  -24.4288   29.1924 C   0  0  0  0  0  0  0  0  0  0  0  0
  -10.2961  -25.1779   29.8053 C   0  0  0  0  0  0  0  0  0  0  0  0
  -10.9100  -24.9232   30.9978 C   0  0  0  0  0  0  0  0  0  0  0  0
  -11.8757  -25.8603   31.2458 N   0  0  0  0  0  0  0  0  0  0  0  0
  -11.8535  -26.6965   30.2418 C   0  0  0  0  0  0  0  0  0  0  0  0
  -12.6564  -27.8474   29.8990 C   0  0  0  0  0  0  0  0  0  0  0  0
  -13.9896  -27.6501   29.1582 C   0  0  0  0  0  0  0  0  0  0  0  0
  -14.9685  -28.2540   29.3341 O   0  0  0  0  0  0  0  0  0  0  0  0
  -13.6560  -26.5683   28.1071 N   0  0  0  0  0  0  0  0  0  0  0  0
  -14.4239  -26.0760   27.0002 C   0  0  0  0  0  0  0  0  0  0  0  0
  -13.4285  -25.1360   26.2502 C   0  0  0  0  0  0  0  0  0  0  0  0
  -12.6813  -24.1260   27.1153 C   0  0  0  0  0  0  0  0  0  0  0  0
  -12.8119  -23.7546   28.4428 C   0  0  0  0  0  0  0  0  0  0  0  0
  -11.9982  -22.7386   28.8999 N   0  0  0  0  0  0  0  0  0  0  0  0
  -11.2514  -22.3244   27.9085 C   0  0  0  0  0  0  0  0  0  0  0  0
  -11.3846  -23.2324   26.4586 S   0  0  0  0  0  0  0  0  0  0  0  0
  -15.6796  -25.2809   27.2858 C   0  0  0  0  0  0  0  0  0  0  0  0
  -16.4047  -24.7995   26.4275 O   0  0  0  0  0  0  0  0  0  0  0  0
  -15.9198  -25.0599   28.5866 O   0  0  0  0  0  0  0  0  0  0  0  0
  -12.0145  -28.8391   29.2306 C   0  0  0  0  0  0  0  0  0  0  0  0
  -10.8155  -28.5108   28.4867 C   0  0  0  0  0  0  0  0  0  0  0  0
  -10.5362  -27.1937   28.2880 C   0  0  0  0  0  0  0  0  0  0  0  0
  -10.8811  -26.3314   29.3298 N   0  0  0  0  0  0  0  0  0  0  0  0
   -9.3801  -24.4420   28.1198 H   0  0  0  0  0  0  0  0  0  0  0  0
   -8.2563  -24.8643   29.4359 H   0  0  0  0  0  0  0  0  0  0  0  0
   -9.2045  -23.3909   29.5383 H   0  0  0  0  0  0  0  0  0  0  0  0
  -10.7334  -24.1012   31.6822 H   0  0  0  0  0  0  0  0  0  0  0  0
  -12.7504  -26.1973   28.2875 H   0  0  0  0  0  0  0  0  0  0  0  0
  -14.7114  -26.9340   26.3837 H   0  0  0  0  0  0  0  0  0  0  0  0
  -12.6765  -25.7803   25.7750 H   0  0  0  0  0  0  0  0  0  0  0  0
  -13.9461  -24.5948   25.4510 H   0  0  0  0  0  0  0  0  0  0  0  0
  -13.5216  -24.1692   29.1453 H   0  0  0  0  0  0  0  0  0  0  0  0
  -10.5838  -21.4784   28.0061 H   0  0  0  0  0  0  0  0  0  0  0  0
  -16.6575  -24.4108   28.5492 H   0  0  0  0  0  0  0  0  0  0  0  0
  -12.5742  -29.6857   28.8294 H   0  0  0  0  0  0  0  0  0  0  0  0
  -10.3280  -29.3472   27.9905 H   0  0  0  0  0  0  0  0  0  0  0  0
   -9.7873  -26.8043   27.6015 H   0  0  0  0  0  0  0  0  0  0  0  0
  1  2  1  0
  2  3  2  0
  3  4  1  0
  4  5  2  0
  5  6  1  0
  6  7  1  0
  7  8  2  0
  7  9  1  0
  9 10  1  0
 10 11  1  0
 11 12  1  0
 12 13  2  0
 13 14  1  0
 14 15  2  0
 15 16  1  0
 10 17  1  0
 17 18  2  0
 17 19  1  0
  6 20  2  0
 20 21  1  0
 21 22  2  0
 22 23  1  0
 23  2  1  0
 23  5  1  0
 16 12  1  0
  1 24  1  0
  1 25  1  0
  1 26  1  0
  3 27  1  0
  9 28  1  0
 10 29  1  0
 11 30  1  0
 11 31  1  0
 13 32  1  0
 15 33  1  0
 19 34  1  0
 20 35  1  0
 21 36  1  0
 22 37  1  0
M  END
>  <Energy>  (526) 
116.45031152464308

>  <compound_id>  (526) 
5537

>  <target_id>  (526) 
1

>  <reference_id>  (526) 
88

>  <inspiration_ids>  (526) 
[45, 88]

>  <energy_score>  (526) 
-14.35416327710118

>  <distance_score>  (526) 
4.358812385536364

>  <path>  (526) 
/opt/xchem-fragalysis-2/maxwin/BulkDock/SCRATCH/511018/C5537-P88/C5537-P88.minimised.mol

>  <scratch_subdir>  (526) 
/opt/xchem-fragalysis-2/maxwin/BulkDock/SCRATCH/511018/C5537-P88

>  <fragmenstein_runtime>  (526) 
7.216464281082153

>  <fragmenstein_outcome>  (526) 
too moved

>  <fragmenstein_mode>  (526) 
expansion

>  <fragmenstein_error>  (526) 


$$$$
C5538-P45
     RDKit          3D

 30 32  0  0  0  0  0  0  0  0999 V2000
  -12.2684  -25.1452   26.1700 O   0  0  0  0  0  0  0  0  0  0  0  0
  -11.3129  -25.5341   26.8366 C   0  0  0  0  0  0  0  0  0  0  0  0
  -10.5266  -26.5514   26.3564 O   0  0  0  0  0  0  0  0  0  0  0  0
  -10.0771  -27.6679   27.1597 C   0  0  0  0  0  0  0  0  0  0  0  0
   -8.7293  -28.2128   26.6735 C   0  0  0  0  0  0  0  0  0  0  0  0
   -7.5566  -27.2955   26.8329 C   0  0  0  0  0  0  0  0  0  0  0  0
   -7.4479  -25.9345   27.0469 C   0  0  0  0  0  0  0  0  0  0  0  0
   -6.1601  -25.4248   27.1027 N   0  0  0  0  0  0  0  0  0  0  0  0
   -5.2985  -26.3939   26.8812 C   0  0  0  0  0  0  0  0  0  0  0  0
   -5.9735  -27.9427   26.6436 S   0  0  0  0  0  0  0  0  0  0  0  0
  -10.9705  -24.9313   28.1325 C   0  0  0  0  0  0  0  0  0  0  0  0
  -11.5041  -23.7790   28.7033 C   0  0  0  0  0  0  0  0  0  0  0  0
  -11.0765  -23.7699   30.0115 N   0  0  0  0  0  0  0  0  0  0  0  0
  -11.4301  -22.9748   31.1161 C   0  0  0  0  0  0  0  0  0  0  0  0
  -11.0178  -23.3361   32.3541 C   0  0  0  0  0  0  0  0  0  0  0  0
  -10.2025  -24.5429   32.4965 C   0  0  0  0  0  0  0  0  0  0  0  0
  -10.2780  -25.5341   34.0770 Br  0  0  0  0  0  0  0  0  0  0  0  0
   -9.7034  -25.1788   31.4186 C   0  0  0  0  0  0  0  0  0  0  0  0
  -10.1888  -24.8394   30.1268 C   0  0  0  0  0  0  0  0  0  0  0  0
  -10.0695  -25.4924   29.0041 N   0  0  0  0  0  0  0  0  0  0  0  0
  -10.8259  -28.4552   27.0120 H   0  0  0  0  0  0  0  0  0  0  0  0
  -10.0543  -27.4831   28.2300 H   0  0  0  0  0  0  0  0  0  0  0  0
   -8.5329  -29.1441   27.2143 H   0  0  0  0  0  0  0  0  0  0  0  0
   -8.8200  -28.5002   25.6218 H   0  0  0  0  0  0  0  0  0  0  0  0
   -8.2691  -25.2432   27.1659 H   0  0  0  0  0  0  0  0  0  0  0  0
   -4.2284  -26.2273   26.8445 H   0  0  0  0  0  0  0  0  0  0  0  0
  -12.2135  -23.0576   28.3247 H   0  0  0  0  0  0  0  0  0  0  0  0
  -12.0842  -22.1332   30.9277 H   0  0  0  0  0  0  0  0  0  0  0  0
  -11.3357  -22.8044   33.2455 H   0  0  0  0  0  0  0  0  0  0  0  0
   -9.1752  -26.1221   31.5242 H   0  0  0  0  0  0  0  0  0  0  0  0
  1  2  2  0
  2  3  1  0
  3  4  1  0
  4  5  1  0
  5  6  1  0
  6  7  2  0
  7  8  1  0
  8  9  2  0
  9 10  1  0
  2 11  1  0
 11 12  2  0
 12 13  1  0
 13 14  1  0
 14 15  2  0
 15 16  1  0
 16 17  1  0
 16 18  2  0
 18 19  1  0
 19 20  2  0
 10  6  1  0
 20 11  1  0
 19 13  1  0
  4 21  1  0
  4 22  1  0
  5 23  1  0
  5 24  1  0
  7 25  1  0
  9 26  1  0
 12 27  1  0
 14 28  1  0
 15 29  1  0
 18 30  1  0
M  END
>  <Energy>  (527) 
82.934479600079797

>  <compound_id>  (527) 
5538

>  <target_id>  (527) 
1

>  <reference_id>  (527) 
45

>  <inspiration_ids>  (527) 
[45, 88]

>  <energy_score>  (527) 
-47.512998373540256

>  <distance_score>  (527) 
1.8581230518356984

>  <path>  (527) 
/opt/xchem-fragalysis-2/maxwin/BulkDock/SCRATCH/511018/C5538-P45/C5538-P45.minimised.mol

>  <scratch_subdir>  (527) 
/opt/xchem-fragalysis-2/maxwin/BulkDock/SCRATCH/511018/C5538-P45

>  <fragmenstein_runtime>  (527) 
12.283280611038208

>  <fragmenstein_outcome>  (527) 
too moved

>  <fragmenstein_mode>  (527) 
expansion

>  <fragmenstein_error>  (527) 


$$$$
C5538-P88
     RDKit          3D

 30 32  0  0  0  0  0  0  0  0999 V2000
  -13.0420  -26.9479   27.7658 O   0  0  0  0  0  0  0  0  0  0  0  0
  -11.9652  -26.7849   28.3237 C   0  0  0  0  0  0  0  0  0  0  0  0
  -10.9874  -27.7411   28.4237 O   0  0  0  0  0  0  0  0  0  0  0  0
  -11.2547  -29.1457   28.2426 C   0  0  0  0  0  0  0  0  0  0  0  0
   -9.9059  -29.9113   28.2038 C   0  0  0  0  0  0  0  0  0  0  0  0
   -8.8821  -29.8245   27.1184 C   0  0  0  0  0  0  0  0  0  0  0  0
   -8.1216  -28.7547   26.6920 C   0  0  0  0  0  0  0  0  0  0  0  0
   -7.3818  -28.9761   25.5329 N   0  0  0  0  0  0  0  0  0  0  0  0
   -7.3549  -30.2546   25.2542 C   0  0  0  0  0  0  0  0  0  0  0  0
   -8.3512  -31.2375   26.2474 S   0  0  0  0  0  0  0  0  0  0  0  0
  -11.5689  -25.5783   29.0731 C   0  0  0  0  0  0  0  0  0  0  0  0
  -12.0876  -24.2879   29.1232 C   0  0  0  0  0  0  0  0  0  0  0  0
  -11.4473  -23.6538   30.1822 N   0  0  0  0  0  0  0  0  0  0  0  0
  -11.6768  -22.4399   30.8379 C   0  0  0  0  0  0  0  0  0  0  0  0
  -10.9862  -22.1356   31.9551 C   0  0  0  0  0  0  0  0  0  0  0  0
   -9.9800  -23.0688   32.4280 C   0  0  0  0  0  0  0  0  0  0  0  0
   -9.0698  -22.7224   33.9961 Br  0  0  0  0  0  0  0  0  0  0  0  0
   -9.7235  -24.2048   31.7630 C   0  0  0  0  0  0  0  0  0  0  0  0
  -10.5001  -24.5508   30.6376 C   0  0  0  0  0  0  0  0  0  0  0  0
  -10.5577  -25.6846   29.9974 N   0  0  0  0  0  0  0  0  0  0  0  0
  -11.8064  -29.4735   29.1319 H   0  0  0  0  0  0  0  0  0  0  0  0
  -11.8997  -29.3389   27.3833 H   0  0  0  0  0  0  0  0  0  0  0  0
   -9.3698  -29.5651   29.0771 H   0  0  0  0  0  0  0  0  0  0  0  0
  -10.1786  -30.9637   28.3211 H   0  0  0  0  0  0  0  0  0  0  0  0
   -8.1374  -27.7574   27.1073 H   0  0  0  0  0  0  0  0  0  0  0  0
   -6.7499  -30.6709   24.4601 H   0  0  0  0  0  0  0  0  0  0  0  0
  -12.8872  -23.8129   28.5771 H   0  0  0  0  0  0  0  0  0  0  0  0
  -12.4515  -21.7970   30.4426 H   0  0  0  0  0  0  0  0  0  0  0  0
  -11.1755  -21.2168   32.5014 H   0  0  0  0  0  0  0  0  0  0  0  0
   -8.9749  -24.9113   32.1039 H   0  0  0  0  0  0  0  0  0  0  0  0
  1  2  2  0
  2  3  1  0
  3  4  1  0
  4  5  1  0
  5  6  1  0
  6  7  2  0
  7  8  1  0
  8  9  2  0
  9 10  1  0
  2 11  1  0
 11 12  2  0
 12 13  1  0
 13 14  1  0
 14 15  2  0
 15 16  1  0
 16 17  1  0
 16 18  2  0
 18 19  1  0
 19 20  2  0
 10  6  1  0
 20 11  1  0
 19 13  1  0
  4 21  1  0
  4 22  1  0
  5 23  1  0
  5 24  1  0
  7 25  1  0
  9 26  1  0
 12 27  1  0
 14 28  1  0
 15 29  1  0
 18 30  1  0
M  END
>  <Energy>  (528) 
75.074830212330696

>  <compound_id>  (528) 
5538

>  <target_id>  (528) 
1

>  <reference_id>  (528) 
88

>  <inspiration_ids>  (528) 
[45, 88]

>  <energy_score>  (528) 
-55.37264776128859

>  <distance_score>  (528) 
2.7841929565863115

>  <path>  (528) 
/opt/xchem-fragalysis-2/maxwin/BulkDock/SCRATCH/511018/C5538-P88/C5538-P88.minimised.mol

>  <scratch_subdir>  (528) 
/opt/xchem-fragalysis-2/maxwin/BulkDock/SCRATCH/511018/C5538-P88

>  <fragmenstein_runtime>  (528) 
11.606140613555908

>  <fragmenstein_outcome>  (528) 
too moved

>  <fragmenstein_mode>  (528) 
expansion

>  <fragmenstein_error>  (528) 


$$$$
C5539-P45
     RDKit          3D

 30 32  0  0  0  0  0  0  0  0999 V2000
  -12.2241  -25.6254   26.6430 O   0  0  0  0  0  0  0  0  0  0  0  0
  -11.5962  -25.8367   27.6764 C   0  0  0  0  0  0  0  0  0  0  0  0
  -10.9728  -27.0131   27.9639 O   0  0  0  0  0  0  0  0  0  0  0  0
  -10.3219  -27.6271   26.8484 C   0  0  0  0  0  0  0  0  0  0  0  0
   -8.8122  -27.4771   27.0295 C   0  0  0  0  0  0  0  0  0  0  0  0
   -8.3371  -26.0608   27.0777 C   0  0  0  0  0  0  0  0  0  0  0  0
   -8.1619  -25.0778   26.1413 C   0  0  0  0  0  0  0  0  0  0  0  0
   -7.1780  -24.1494   26.4282 N   0  0  0  0  0  0  0  0  0  0  0  0
   -6.9756  -24.1807   27.7147 C   0  0  0  0  0  0  0  0  0  0  0  0
   -8.0981  -25.1822   28.5059 S   0  0  0  0  0  0  0  0  0  0  0  0
  -11.3967  -24.8518   28.7298 C   0  0  0  0  0  0  0  0  0  0  0  0
  -11.6797  -23.5039   28.6665 C   0  0  0  0  0  0  0  0  0  0  0  0
  -11.5101  -23.0531   29.9449 N   0  0  0  0  0  0  0  0  0  0  0  0
  -11.9359  -21.8792   30.5140 C   0  0  0  0  0  0  0  0  0  0  0  0
  -11.8420  -21.7189   31.8448 C   0  0  0  0  0  0  0  0  0  0  0  0
  -11.2468  -22.7484   32.6562 C   0  0  0  0  0  0  0  0  0  0  0  0
  -10.6626  -23.8124   32.0862 C   0  0  0  0  0  0  0  0  0  0  0  0
   -9.6347  -25.0032   33.0648 Br  0  0  0  0  0  0  0  0  0  0  0  0
  -10.8830  -24.0441   30.6754 C   0  0  0  0  0  0  0  0  0  0  0  0
  -10.8343  -25.1522   29.9629 N   0  0  0  0  0  0  0  0  0  0  0  0
  -10.5866  -28.6889   26.8631 H   0  0  0  0  0  0  0  0  0  0  0  0
  -10.6534  -27.2171   25.8888 H   0  0  0  0  0  0  0  0  0  0  0  0
   -8.5257  -27.9678   27.9639 H   0  0  0  0  0  0  0  0  0  0  0  0
   -8.2896  -28.0117   26.2291 H   0  0  0  0  0  0  0  0  0  0  0  0
   -8.6222  -25.0258   25.1745 H   0  0  0  0  0  0  0  0  0  0  0  0
   -6.2649  -23.5395   28.2183 H   0  0  0  0  0  0  0  0  0  0  0  0
  -12.0903  -22.8928   27.8747 H   0  0  0  0  0  0  0  0  0  0  0  0
  -12.3635  -21.1770   29.8200 H   0  0  0  0  0  0  0  0  0  0  0  0
  -12.1708  -20.8473   32.3883 H   0  0  0  0  0  0  0  0  0  0  0  0
  -11.2532  -22.6124   33.7302 H   0  0  0  0  0  0  0  0  0  0  0  0
  1  2  2  0
  2  3  1  0
  3  4  1  0
  4  5  1  0
  5  6  1  0
  6  7  2  0
  7  8  1  0
  8  9  2  0
  9 10  1  0
  2 11  1  0
 11 12  2  0
 12 13  1  0
 13 14  1  0
 14 15  2  0
 15 16  1  0
 16 17  2  0
 17 18  1  0
 17 19  1  0
 19 20  2  0
 10  6  1  0
 20 11  1  0
 19 13  1  0
  4 21  1  0
  4 22  1  0
  5 23  1  0
  5 24  1  0
  7 25  1  0
  9 26  1  0
 12 27  1  0
 14 28  1  0
 15 29  1  0
 16 30  1  0
M  END
>  <Energy>  (529) 
98.092358617304285

>  <compound_id>  (529) 
5539

>  <target_id>  (529) 
1

>  <reference_id>  (529) 
45

>  <inspiration_ids>  (529) 
[45, 88]

>  <energy_score>  (529) 
-38.255240207145675

>  <distance_score>  (529) 
2.2151002655124574

>  <path>  (529) 
/opt/xchem-fragalysis-2/maxwin/BulkDock/SCRATCH/511018/C5539-P45/C5539-P45.minimised.mol

>  <scratch_subdir>  (529) 
/opt/xchem-fragalysis-2/maxwin/BulkDock/SCRATCH/511018/C5539-P45

>  <fragmenstein_runtime>  (529) 
13.770978450775146

>  <fragmenstein_outcome>  (529) 
too moved

>  <fragmenstein_mode>  (529) 
expansion

>  <fragmenstein_error>  (529) 


$$$$
C5539-P88
     RDKit          3D

 30 32  0  0  0  0  0  0  0  0999 V2000
  -12.6130  -26.8959   27.5967 O   0  0  0  0  0  0  0  0  0  0  0  0
  -11.7623  -26.8167   28.4754 C   0  0  0  0  0  0  0  0  0  0  0  0
  -10.9994  -27.8691   28.8859 O   0  0  0  0  0  0  0  0  0  0  0  0
  -11.1804  -29.1901   28.3258 C   0  0  0  0  0  0  0  0  0  0  0  0
   -9.8172  -29.9094   28.1779 C   0  0  0  0  0  0  0  0  0  0  0  0
   -8.8298  -29.7974   27.0695 C   0  0  0  0  0  0  0  0  0  0  0  0
   -8.0764  -28.7214   26.6534 C   0  0  0  0  0  0  0  0  0  0  0  0
   -7.3203  -28.9349   25.5058 N   0  0  0  0  0  0  0  0  0  0  0  0
   -7.3112  -30.2047   25.1902 C   0  0  0  0  0  0  0  0  0  0  0  0
   -8.2936  -31.2026   26.1822 S   0  0  0  0  0  0  0  0  0  0  0  0
  -11.4518  -25.5662   29.1998 C   0  0  0  0  0  0  0  0  0  0  0  0
  -11.7435  -24.2847   28.7677 C   0  0  0  0  0  0  0  0  0  0  0  0
  -11.3682  -23.4396   29.7817 N   0  0  0  0  0  0  0  0  0  0  0  0
  -11.5521  -22.0694   29.8699 C   0  0  0  0  0  0  0  0  0  0  0  0
  -11.2270  -21.4319   31.0031 C   0  0  0  0  0  0  0  0  0  0  0  0
  -10.5931  -22.1752   32.0709 C   0  0  0  0  0  0  0  0  0  0  0  0
  -10.3346  -23.4939   31.9597 C   0  0  0  0  0  0  0  0  0  0  0  0
   -9.3153  -24.3460   33.2693 Br  0  0  0  0  0  0  0  0  0  0  0  0
  -10.7962  -24.2139   30.7925 C   0  0  0  0  0  0  0  0  0  0  0  0
  -10.8442  -25.4969   30.4555 N   0  0  0  0  0  0  0  0  0  0  0  0
  -11.7509  -29.7305   29.0917 H   0  0  0  0  0  0  0  0  0  0  0  0
  -11.8172  -29.2140   27.4400 H   0  0  0  0  0  0  0  0  0  0  0  0
   -9.2431  -29.5641   29.0256 H   0  0  0  0  0  0  0  0  0  0  0  0
  -10.0653  -30.9714   28.2762 H   0  0  0  0  0  0  0  0  0  0  0  0
   -8.0896  -27.7314   27.0842 H   0  0  0  0  0  0  0  0  0  0  0  0
   -6.7258  -30.6024   24.3711 H   0  0  0  0  0  0  0  0  0  0  0  0
  -12.2111  -23.9213   27.8625 H   0  0  0  0  0  0  0  0  0  0  0  0
  -11.9703  -21.5627   29.0108 H   0  0  0  0  0  0  0  0  0  0  0  0
  -11.3652  -20.3616   31.1180 H   0  0  0  0  0  0  0  0  0  0  0  0
  -10.2624  -21.6052   32.9348 H   0  0  0  0  0  0  0  0  0  0  0  0
  1  2  2  0
  2  3  1  0
  3  4  1  0
  4  5  1  0
  5  6  1  0
  6  7  2  0
  7  8  1  0
  8  9  2  0
  9 10  1  0
  2 11  1  0
 11 12  2  0
 12 13  1  0
 13 14  1  0
 14 15  2  0
 15 16  1  0
 16 17  2  0
 17 18  1  0
 17 19  1  0
 19 20  2  0
 10  6  1  0
 20 11  1  0
 19 13  1  0
  4 21  1  0
  4 22  1  0
  5 23  1  0
  5 24  1  0
  7 25  1  0
  9 26  1  0
 12 27  1  0
 14 28  1  0
 15 29  1  0
 16 30  1  0
M  END
>  <Energy>  (530) 
83.94595654478249

>  <compound_id>  (530) 
5539

>  <target_id>  (530) 
1

>  <reference_id>  (530) 
88

>  <inspiration_ids>  (530) 
[45, 88]

>  <energy_score>  (530) 
-52.40164227966778

>  <distance_score>  (530) 
2.7314437627933725

>  <path>  (530) 
/opt/xchem-fragalysis-2/maxwin/BulkDock/SCRATCH/511018/C5539-P88/C5539-P88.minimised.mol

>  <scratch_subdir>  (530) 
/opt/xchem-fragalysis-2/maxwin/BulkDock/SCRATCH/511018/C5539-P88

>  <fragmenstein_runtime>  (530) 
13.580353021621704

>  <fragmenstein_outcome>  (530) 
too moved

>  <fragmenstein_mode>  (530) 
expansion

>  <fragmenstein_error>  (530) 


$$$$
C5540-P45
     RDKit          3D

 38 40  0  0  0  0  0  0  0  0999 V2000
  -11.8419  -26.7646   26.3331 C   0  0  0  0  0  0  0  0  0  0  0  0
  -10.3802  -26.8325   25.9892 N   0  0  0  0  0  0  0  0  0  0  0  0
  -10.5285  -25.2046   26.0575 C   0  0  0  0  0  0  0  0  0  0  0  0
  -11.6175  -24.1603   26.4968 C   0  0  0  0  0  0  0  0  0  0  0  0
  -11.5134  -23.6088   27.8128 N   0  0  0  0  0  0  0  0  0  0  0  0
  -11.9144  -24.1210   29.0679 C   0  0  0  0  0  0  0  0  0  0  0  0
  -12.5136  -25.1111   29.3472 O   0  0  0  0  0  0  0  0  0  0  0  0
  -11.6060  -23.2130   30.1558 C   0  0  0  0  0  0  0  0  0  0  0  0
  -11.8217  -21.8638   30.2566 C   0  0  0  0  0  0  0  0  0  0  0  0
  -11.7967  -21.3714   31.5483 N   0  0  0  0  0  0  0  0  0  0  0  0
  -11.4707  -22.3139   32.3926 C   0  0  0  0  0  0  0  0  0  0  0  0
  -11.0123  -23.7829   31.6671 S   0  0  0  0  0  0  0  0  0  0  0  0
   -9.5361  -27.9557   27.0777 C   0  0  0  0  0  0  0  0  0  0  0  0
   -8.9027  -27.7723   28.2651 O   0  0  0  0  0  0  0  0  0  0  0  0
   -9.5908  -29.1695   26.7584 C   0  0  0  0  0  0  0  0  0  0  0  0
  -10.8051  -28.5711   28.0266 C   0  0  0  0  0  0  0  0  0  0  0  0
  -10.6982  -27.1032   28.6796 C   0  0  0  0  0  0  0  0  0  0  0  0
   -9.3976  -25.9388   28.1821 C   0  0  0  0  0  0  0  0  0  0  0  0
   -8.9321  -24.7689   28.5923 N   0  0  0  0  0  0  0  0  0  0  0  0
   -7.7028  -24.5345   27.9324 C   0  0  0  0  0  0  0  0  0  0  0  0
   -7.2465  -25.5175   27.0593 C   0  0  0  0  0  0  0  0  0  0  0  0
   -8.2036  -26.4928   27.0204 N   0  0  0  0  0  0  0  0  0  0  0  0
   -8.3722  -28.1747   26.3581 C   0  0  0  0  0  0  0  0  0  0  0  0
  -12.1955  -26.3339   27.2648 H   0  0  0  0  0  0  0  0  0  0  0  0
  -12.2145  -27.7973   26.3212 H   0  0  0  0  0  0  0  0  0  0  0  0
  -12.3991  -26.3727   25.4655 H   0  0  0  0  0  0  0  0  0  0  0  0
  -10.6424  -25.0783   24.9657 H   0  0  0  0  0  0  0  0  0  0  0  0
   -9.5460  -24.7511   26.1419 H   0  0  0  0  0  0  0  0  0  0  0  0
  -11.5600  -23.3037   25.8237 H   0  0  0  0  0  0  0  0  0  0  0  0
  -12.6329  -24.5170   26.3593 H   0  0  0  0  0  0  0  0  0  0  0  0
  -10.9452  -22.7814   27.9610 H   0  0  0  0  0  0  0  0  0  0  0  0
  -12.1116  -21.2101   29.4460 H   0  0  0  0  0  0  0  0  0  0  0  0
  -11.4737  -22.1671   33.4630 H   0  0  0  0  0  0  0  0  0  0  0  0
  -11.4900  -29.3330   28.3892 H   0  0  0  0  0  0  0  0  0  0  0  0
  -11.2564  -26.8466   29.5636 H   0  0  0  0  0  0  0  0  0  0  0  0
   -7.1594  -23.6267   28.1684 H   0  0  0  0  0  0  0  0  0  0  0  0
   -6.3214  -25.6165   26.5144 H   0  0  0  0  0  0  0  0  0  0  0  0
   -7.5154  -28.4694   25.7552 H   0  0  0  0  0  0  0  0  0  0  0  0
  1  2  1  0
  2  3  1  0
  3  4  1  0
  4  5  1  0
  5  6  1  0
  6  7  2  0
  6  8  1  0
  8  9  2  0
  9 10  1  0
 10 11  2  0
 11 12  1  0
  2 13  1  0
 13 14  2  0
 13 15  1  0
 15 16  1  0
 16 17  2  0
 17 18  1  0
 18 19  2  0
 19 20  1  0
 20 21  2  0
 21 22  1  0
 22 23  1  0
 12  8  1  0
 23 15  2  0
 22 18  1  0
  1 24  1  0
  1 25  1  0
  1 26  1  0
  3 27  1  0
  3 28  1  0
  4 29  1  0
  4 30  1  0
  5 31  1  0
  9 32  1  0
 11 33  1  0
 16 34  1  0
 17 35  1  0
 20 36  1  0
 21 37  1  0
 23 38  1  0
M  END
>  <Energy>  (531) 
872.57668019247899

>  <compound_id>  (531) 
5540

>  <target_id>  (531) 
1

>  <reference_id>  (531) 
45

>  <inspiration_ids>  (531) 
[45, 88]

>  <energy_score>  (531) 
816.7779706075753

>  <distance_score>  (531) 
2.705813699205272

>  <path>  (531) 
/opt/xchem-fragalysis-2/maxwin/BulkDock/SCRATCH/511018/C5540-P45/C5540-P45.minimised.mol

>  <scratch_subdir>  (531) 
/opt/xchem-fragalysis-2/maxwin/BulkDock/SCRATCH/511018/C5540-P45

>  <fragmenstein_runtime>  (531) 
6.870581388473511

>  <fragmenstein_outcome>  (531) 
too moved

>  <fragmenstein_mode>  (531) 
expansion

>  <fragmenstein_error>  (531) 


$$$$
C5540-P88
     RDKit          3D

 38 40  0  0  0  0  0  0  0  0999 V2000
  -10.0690  -27.2560   22.6078 C   0  0  0  0  0  0  0  0  0  0  0  0
   -9.4534  -27.5273   23.9635 N   0  0  0  0  0  0  0  0  0  0  0  0
  -11.3494  -27.0783   24.5578 C   0  0  0  0  0  0  0  0  0  0  0  0
  -12.5583  -27.3021   25.8044 C   0  0  0  0  0  0  0  0  0  0  0  0
  -12.4231  -26.2975   26.8560 N   0  0  0  0  0  0  0  0  0  0  0  0
  -11.8372  -26.3759   28.1587 C   0  0  0  0  0  0  0  0  0  0  0  0
  -11.3791  -27.3060   28.7504 O   0  0  0  0  0  0  0  0  0  0  0  0
  -11.7312  -25.0421   28.7903 C   0  0  0  0  0  0  0  0  0  0  0  0
  -11.9572  -23.7549   28.3281 C   0  0  0  0  0  0  0  0  0  0  0  0
  -11.7758  -22.7316   29.2413 N   0  0  0  0  0  0  0  0  0  0  0  0
  -11.3553  -23.2292   30.3796 C   0  0  0  0  0  0  0  0  0  0  0  0
  -11.1522  -24.9248   30.4187 S   0  0  0  0  0  0  0  0  0  0  0  0
   -8.4734  -29.1153   23.9030 C   0  0  0  0  0  0  0  0  0  0  0  0
   -8.7955  -30.2657   24.1291 O   0  0  0  0  0  0  0  0  0  0  0  0
   -6.9706  -29.0287   23.6386 C   0  0  0  0  0  0  0  0  0  0  0  0
   -6.2585  -29.4937   22.4585 C   0  0  0  0  0  0  0  0  0  0  0  0
   -5.6308  -30.6899   22.4020 C   0  0  0  0  0  0  0  0  0  0  0  0
   -5.8205  -31.5790   23.4835 C   0  0  0  0  0  0  0  0  0  0  0  0
   -5.8157  -32.8899   23.5618 N   0  0  0  0  0  0  0  0  0  0  0  0
   -6.5385  -33.1608   24.6932 C   0  0  0  0  0  0  0  0  0  0  0  0
   -6.9572  -32.0015   25.2964 C   0  0  0  0  0  0  0  0  0  0  0  0
   -6.2845  -30.9954   24.6510 N   0  0  0  0  0  0  0  0  0  0  0  0
   -6.4541  -29.5928   24.7693 C   0  0  0  0  0  0  0  0  0  0  0  0
   -9.9688  -26.6126   21.7225 H   0  0  0  0  0  0  0  0  0  0  0  0
   -9.0257  -27.4884   23.0018 H   0  0  0  0  0  0  0  0  0  0  0  0
  -10.9578  -27.5166   22.8799 H   0  0  0  0  0  0  0  0  0  0  0  0
  -11.5262  -26.0565   24.4588 H   0  0  0  0  0  0  0  0  0  0  0  0
  -10.7920  -26.3649   25.3333 H   0  0  0  0  0  0  0  0  0  0  0  0
  -12.6039  -28.2796   26.2878 H   0  0  0  0  0  0  0  0  0  0  0  0
  -13.5281  -27.1045   25.3350 H   0  0  0  0  0  0  0  0  0  0  0  0
  -12.6287  -25.3329   26.6460 H   0  0  0  0  0  0  0  0  0  0  0  0
  -12.2691  -23.4660   27.3317 H   0  0  0  0  0  0  0  0  0  0  0  0
  -11.1507  -22.6082   31.2432 H   0  0  0  0  0  0  0  0  0  0  0  0
   -6.2060  -28.8432   21.6028 H   0  0  0  0  0  0  0  0  0  0  0  0
   -5.1287  -31.0351   21.5064 H   0  0  0  0  0  0  0  0  0  0  0  0
   -6.7806  -34.1775   24.9692 H   0  0  0  0  0  0  0  0  0  0  0  0
   -7.6542  -31.7935   26.0931 H   0  0  0  0  0  0  0  0  0  0  0  0
   -5.4611  -29.2233   25.0287 H   0  0  0  0  0  0  0  0  0  0  0  0
  1  2  1  0
  2  3  1  0
  3  4  1  0
  4  5  1  0
  5  6  1  0
  6  7  2  0
  6  8  1  0
  8  9  2  0
  9 10  1  0
 10 11  2  0
 11 12  1  0
  2 13  1  0
 13 14  2  0
 13 15  1  0
 15 16  1  0
 16 17  2  0
 17 18  1  0
 18 19  2  0
 19 20  1  0
 20 21  2  0
 21 22  1  0
 22 23  1  0
 12  8  1  0
 23 15  2  0
 22 18  1  0
  1 24  1  0
  1 25  1  0
  1 26  1  0
  3 27  1  0
  3 28  1  0
  4 29  1  0
  4 30  1  0
  5 31  1  0
  9 32  1  0
 11 33  1  0
 16 34  1  0
 17 35  1  0
 20 36  1  0
 21 37  1  0
 23 38  1  0
M  END
>  <Energy>  (532) 
562.92435517812271

>  <compound_id>  (532) 
5540

>  <target_id>  (532) 
1

>  <reference_id>  (532) 
88

>  <inspiration_ids>  (532) 
[45, 88]

>  <energy_score>  (532) 
507.1256455932345

>  <distance_score>  (532) 
4.859377047479926

>  <path>  (532) 
/opt/xchem-fragalysis-2/maxwin/BulkDock/SCRATCH/511018/C5540-P88/C5540-P88.minimised.mol

>  <scratch_subdir>  (532) 
/opt/xchem-fragalysis-2/maxwin/BulkDock/SCRATCH/511018/C5540-P88

>  <fragmenstein_runtime>  (532) 
5.674203872680664

>  <fragmenstein_outcome>  (532) 
too moved

>  <fragmenstein_mode>  (532) 
expansion

>  <fragmenstein_error>  (532) 


$$$$
C5541-P45
     RDKit          3D

 38 40  0  0  0  0  0  0  0  0999 V2000
   -5.1078  -25.3097   27.2068 C   0  0  0  0  0  0  0  0  0  0  0  0
   -6.0356  -26.4673   27.0290 C   0  0  0  0  0  0  0  0  0  0  0  0
   -5.6269  -27.6930   26.6384 C   0  0  0  0  0  0  0  0  0  0  0  0
   -6.6197  -28.7132   26.3290 C   0  0  0  0  0  0  0  0  0  0  0  0
   -7.9370  -28.4822   26.3886 C   0  0  0  0  0  0  0  0  0  0  0  0
   -8.3466  -27.1666   26.6498 C   0  0  0  0  0  0  0  0  0  0  0  0
   -9.4320  -26.5009   26.3010 N   0  0  0  0  0  0  0  0  0  0  0  0
   -9.0845  -25.1880   26.4557 C   0  0  0  0  0  0  0  0  0  0  0  0
   -8.2271  -25.2234   27.5217 C   0  0  0  0  0  0  0  0  0  0  0  0
   -8.8043  -25.0657   28.8762 C   0  0  0  0  0  0  0  0  0  0  0  0
   -9.7091  -26.1487   29.3119 N   0  0  0  0  0  0  0  0  0  0  0  0
  -11.0905  -26.2859   28.7493 C   0  0  0  0  0  0  0  0  0  0  0  0
  -11.8381  -25.0973   28.1375 C   0  0  0  0  0  0  0  0  0  0  0  0
  -11.7284  -23.7964   28.8398 C   0  0  0  0  0  0  0  0  0  0  0  0
  -11.7126  -22.5372   28.2936 C   0  0  0  0  0  0  0  0  0  0  0  0
  -11.7522  -21.5095   29.2047 N   0  0  0  0  0  0  0  0  0  0  0  0
  -11.6774  -21.9764   30.4212 C   0  0  0  0  0  0  0  0  0  0  0  0
  -11.6376  -23.6552   30.5321 S   0  0  0  0  0  0  0  0  0  0  0  0
  -11.2671  -27.5330   27.8609 C   0  0  0  0  0  0  0  0  0  0  0  0
  -10.7720  -28.6319   28.0625 O   0  0  0  0  0  0  0  0  0  0  0  0
  -12.0620  -27.3668   26.7784 O   0  0  0  0  0  0  0  0  0  0  0  0
   -7.4132  -26.2655   27.1257 N   0  0  0  0  0  0  0  0  0  0  0  0
   -4.0645  -25.6148   27.0824 H   0  0  0  0  0  0  0  0  0  0  0  0
   -5.3345  -24.5501   26.4542 H   0  0  0  0  0  0  0  0  0  0  0  0
   -5.1991  -24.8291   28.1826 H   0  0  0  0  0  0  0  0  0  0  0  0
   -4.5788  -27.9161   26.4659 H   0  0  0  0  0  0  0  0  0  0  0  0
   -6.2914  -29.6669   25.9440 H   0  0  0  0  0  0  0  0  0  0  0  0
   -8.6608  -29.2343   26.0988 H   0  0  0  0  0  0  0  0  0  0  0  0
   -9.7986  -24.4273   26.1820 H   0  0  0  0  0  0  0  0  0  0  0  0
   -8.0071  -24.9706   29.6007 H   0  0  0  0  0  0  0  0  0  0  0  0
   -9.3139  -24.1134   28.8623 H   0  0  0  0  0  0  0  0  0  0  0  0
   -9.2498  -27.0544   29.2014 H   0  0  0  0  0  0  0  0  0  0  0  0
  -11.6824  -26.5938   29.6139 H   0  0  0  0  0  0  0  0  0  0  0  0
  -12.8940  -25.3751   28.1710 H   0  0  0  0  0  0  0  0  0  0  0  0
  -11.6204  -24.9599   27.0768 H   0  0  0  0  0  0  0  0  0  0  0  0
  -11.7194  -22.3118   27.2350 H   0  0  0  0  0  0  0  0  0  0  0  0
  -11.6356  -21.3365   31.2917 H   0  0  0  0  0  0  0  0  0  0  0  0
  -11.7231  -28.0701   26.1801 H   0  0  0  0  0  0  0  0  0  0  0  0
  1  2  1  0
  2  3  2  0
  3  4  1  0
  4  5  2  0
  5  6  1  0
  6  7  2  0
  7  8  1  0
  8  9  2  0
  9 10  1  0
 10 11  1  0
 11 12  1  0
 12 13  1  0
 13 14  1  0
 14 15  2  0
 15 16  1  0
 16 17  2  0
 17 18  1  0
 12 19  1  0
 19 20  2  0
 19 21  1  0
  9 22  1  0
 22  2  1  0
 22  6  1  0
 18 14  1  0
  1 23  1  0
  1 24  1  0
  1 25  1  0
  3 26  1  0
  4 27  1  0
  5 28  1  0
  8 29  1  0
 10 30  1  0
 10 31  1  0
 11 32  1  0
 12 33  1  0
 13 34  1  0
 13 35  1  0
 15 36  1  0
 17 37  1  0
 21 38  1  0
M  END
>  <Energy>  (533) 
116.07352675553494

>  <compound_id>  (533) 
5541

>  <target_id>  (533) 
1

>  <reference_id>  (533) 
45

>  <inspiration_ids>  (533) 
[45, 88]

>  <energy_score>  (533) 
-40.21034542578127

>  <distance_score>  (533) 
1.8977525871160728

>  <path>  (533) 
/opt/xchem-fragalysis-2/maxwin/BulkDock/SCRATCH/511018/C5541-P45/C5541-P45.minimised.mol

>  <scratch_subdir>  (533) 
/opt/xchem-fragalysis-2/maxwin/BulkDock/SCRATCH/511018/C5541-P45

>  <fragmenstein_runtime>  (533) 
4.760839223861694

>  <fragmenstein_outcome>  (533) 
too moved

>  <fragmenstein_mode>  (533) 
expansion

>  <fragmenstein_error>  (533) 


$$$$
C5541-P88
     RDKit          3D

 38 40  0  0  0  0  0  0  0  0999 V2000
   -9.4382  -29.1795   27.8853 C   0  0  0  0  0  0  0  0  0  0  0  0
  -10.6373  -28.3869   28.3880 C   0  0  0  0  0  0  0  0  0  0  0  0
  -11.5340  -29.0914   29.0862 C   0  0  0  0  0  0  0  0  0  0  0  0
  -12.2932  -28.3972   30.0914 C   0  0  0  0  0  0  0  0  0  0  0  0
  -11.9952  -27.1328   30.4374 C   0  0  0  0  0  0  0  0  0  0  0  0
  -11.0747  -26.3945   29.6696 C   0  0  0  0  0  0  0  0  0  0  0  0
  -10.2987  -25.3643   29.9281 N   0  0  0  0  0  0  0  0  0  0  0  0
   -9.7904  -24.9923   28.7133 C   0  0  0  0  0  0  0  0  0  0  0  0
  -10.2947  -25.8383   27.7371 C   0  0  0  0  0  0  0  0  0  0  0  0
  -10.8425  -25.4756   26.3970 C   0  0  0  0  0  0  0  0  0  0  0  0
  -10.8182  -24.0380   26.1587 N   0  0  0  0  0  0  0  0  0  0  0  0
  -12.0349  -23.3022   26.5323 C   0  0  0  0  0  0  0  0  0  0  0  0
  -12.5203  -23.6174   27.9363 C   0  0  0  0  0  0  0  0  0  0  0  0
  -11.9264  -22.6871   28.9611 C   0  0  0  0  0  0  0  0  0  0  0  0
  -11.3107  -21.4534   28.8461 C   0  0  0  0  0  0  0  0  0  0  0  0
  -11.0584  -20.7908   30.0310 N   0  0  0  0  0  0  0  0  0  0  0  0
  -11.3388  -21.5776   31.0383 C   0  0  0  0  0  0  0  0  0  0  0  0
  -11.9685  -23.0829   30.6155 S   0  0  0  0  0  0  0  0  0  0  0  0
  -13.1529  -23.4643   25.5127 C   0  0  0  0  0  0  0  0  0  0  0  0
  -14.0937  -24.2433   25.5378 O   0  0  0  0  0  0  0  0  0  0  0  0
  -12.9598  -22.6732   24.4324 O   0  0  0  0  0  0  0  0  0  0  0  0
  -10.7123  -26.9548   28.4581 N   0  0  0  0  0  0  0  0  0  0  0  0
   -8.9486  -29.5797   28.7517 H   0  0  0  0  0  0  0  0  0  0  0  0
   -8.6909  -28.5789   27.3567 H   0  0  0  0  0  0  0  0  0  0  0  0
   -9.7286  -30.0455   27.2819 H   0  0  0  0  0  0  0  0  0  0  0  0
  -11.5612  -30.1758   29.0948 H   0  0  0  0  0  0  0  0  0  0  0  0
  -12.9984  -28.9756   30.6820 H   0  0  0  0  0  0  0  0  0  0  0  0
  -12.4364  -26.6729   31.3054 H   0  0  0  0  0  0  0  0  0  0  0  0
   -9.3648  -24.0081   28.6074 H   0  0  0  0  0  0  0  0  0  0  0  0
  -10.1890  -25.8977   25.6594 H   0  0  0  0  0  0  0  0  0  0  0  0
  -11.8395  -25.8989   26.2303 H   0  0  0  0  0  0  0  0  0  0  0  0
  -10.5462  -23.7919   25.2088 H   0  0  0  0  0  0  0  0  0  0  0  0
  -11.7685  -22.2491   26.4513 H   0  0  0  0  0  0  0  0  0  0  0  0
  -12.3779  -24.6545   28.2190 H   0  0  0  0  0  0  0  0  0  0  0  0
  -13.6106  -23.6039   27.9755 H   0  0  0  0  0  0  0  0  0  0  0  0
  -11.0698  -20.9294   27.9297 H   0  0  0  0  0  0  0  0  0  0  0  0
  -11.1894  -21.2805   32.0675 H   0  0  0  0  0  0  0  0  0  0  0  0
  -13.6618  -22.9204   23.8053 H   0  0  0  0  0  0  0  0  0  0  0  0
  1  2  1  0
  2  3  2  0
  3  4  1  0
  4  5  2  0
  5  6  1  0
  6  7  2  0
  7  8  1  0
  8  9  2  0
  9 10  1  0
 10 11  1  0
 11 12  1  0
 12 13  1  0
 13 14  1  0
 14 15  2  0
 15 16  1  0
 16 17  2  0
 17 18  1  0
 12 19  1  0
 19 20  2  0
 19 21  1  0
  9 22  1  0
 22  2  1  0
 22  6  1  0
 18 14  1  0
  1 23  1  0
  1 24  1  0
  1 25  1  0
  3 26  1  0
  4 27  1  0
  5 28  1  0
  8 29  1  0
 10 30  1  0
 10 31  1  0
 11 32  1  0
 12 33  1  0
 13 34  1  0
 13 35  1  0
 15 36  1  0
 17 37  1  0
 21 38  1  0
M  END
>  <Energy>  (534) 
111.62752791794914

>  <compound_id>  (534) 
5541

>  <target_id>  (534) 
1

>  <reference_id>  (534) 
88

>  <inspiration_ids>  (534) 
[45, 88]

>  <energy_score>  (534) 
-44.65634426336271

>  <distance_score>  (534) 
4.01805909924347

>  <path>  (534) 
/opt/xchem-fragalysis-2/maxwin/BulkDock/SCRATCH/511018/C5541-P88/C5541-P88.minimised.mol

>  <scratch_subdir>  (534) 
/opt/xchem-fragalysis-2/maxwin/BulkDock/SCRATCH/511018/C5541-P88

>  <fragmenstein_runtime>  (534) 
5.638060092926025

>  <fragmenstein_outcome>  (534) 
too moved

>  <fragmenstein_mode>  (534) 
expansion

>  <fragmenstein_error>  (534) 


$$$$
C5542-P45
     RDKit          3D

 35 37  0  0  0  0  0  0  0  0999 V2000
  -13.7718  -26.7187   26.9454 O   0  0  0  0  0  0  0  0  0  0  0  0
  -12.9711  -27.0995   27.7887 C   0  0  0  0  0  0  0  0  0  0  0  0
  -12.9031  -28.4190   28.0835 O   0  0  0  0  0  0  0  0  0  0  0  0
  -12.0711  -26.2036   28.6595 C   0  0  0  0  0  0  0  0  0  0  0  0
  -11.8171  -24.8560   27.9681 C   0  0  0  0  0  0  0  0  0  0  0  0
  -11.7150  -23.6417   28.8319 C   0  0  0  0  0  0  0  0  0  0  0  0
  -11.6878  -22.3410   28.3890 C   0  0  0  0  0  0  0  0  0  0  0  0
  -11.8014  -21.3799   29.3665 N   0  0  0  0  0  0  0  0  0  0  0  0
  -11.7321  -21.9320   30.5460 C   0  0  0  0  0  0  0  0  0  0  0  0
  -11.6529  -23.6141   30.5283 S   0  0  0  0  0  0  0  0  0  0  0  0
  -10.9231  -27.0129   29.1091 N   0  0  0  0  0  0  0  0  0  0  0  0
   -9.6828  -26.4012   29.5489 C   0  0  0  0  0  0  0  0  0  0  0  0
   -8.6665  -26.2889   28.4375 C   0  0  0  0  0  0  0  0  0  0  0  0
   -8.5298  -25.2787   27.5111 C   0  0  0  0  0  0  0  0  0  0  0  0
   -7.7693  -23.7997   27.7579 Cl  0  0  0  0  0  0  0  0  0  0  0  0
   -9.2352  -25.6974   26.3944 N   0  0  0  0  0  0  0  0  0  0  0  0
   -9.3716  -27.0110   26.6017 C   0  0  0  0  0  0  0  0  0  0  0  0
   -9.8545  -28.1419   25.9041 C   0  0  0  0  0  0  0  0  0  0  0  0
   -8.9890  -29.1698   25.7389 C   0  0  0  0  0  0  0  0  0  0  0  0
   -7.6314  -29.0774   26.2473 C   0  0  0  0  0  0  0  0  0  0  0  0
   -7.3813  -28.1500   27.1819 C   0  0  0  0  0  0  0  0  0  0  0  0
   -8.4310  -27.3125   27.5488 N   0  0  0  0  0  0  0  0  0  0  0  0
  -13.5615  -28.8286   27.4866 H   0  0  0  0  0  0  0  0  0  0  0  0
  -12.7330  -26.0273   29.5056 H   0  0  0  0  0  0  0  0  0  0  0  0
  -10.9580  -24.8761   27.3263 H   0  0  0  0  0  0  0  0  0  0  0  0
  -12.5999  -24.6457   27.2411 H   0  0  0  0  0  0  0  0  0  0  0  0
  -11.6511  -22.0467   27.3479 H   0  0  0  0  0  0  0  0  0  0  0  0
  -11.7200  -21.3584   31.4624 H   0  0  0  0  0  0  0  0  0  0  0  0
  -11.2474  -27.7385   29.7446 H   0  0  0  0  0  0  0  0  0  0  0  0
   -9.7999  -25.4463   30.0523 H   0  0  0  0  0  0  0  0  0  0  0  0
   -9.3204  -27.0764   30.3268 H   0  0  0  0  0  0  0  0  0  0  0  0
  -10.8268  -28.0832   25.4432 H   0  0  0  0  0  0  0  0  0  0  0  0
   -9.2152  -30.0443   25.1458 H   0  0  0  0  0  0  0  0  0  0  0  0
   -6.8627  -29.7137   25.8321 H   0  0  0  0  0  0  0  0  0  0  0  0
   -6.3907  -27.9798   27.5651 H   0  0  0  0  0  0  0  0  0  0  0  0
  1  2  2  0
  2  3  1  0
  2  4  1  0
  4  5  1  0
  5  6  1  0
  6  7  2  0
  7  8  1  0
  8  9  2  0
  9 10  1  0
  4 11  1  0
 11 12  1  0
 12 13  1  0
 13 14  2  0
 14 15  1  0
 14 16  1  0
 16 17  2  0
 17 18  1  0
 18 19  2  0
 19 20  1  0
 20 21  2  0
 21 22  1  0
 10  6  1  0
 22 13  1  0
 22 17  1  0
  3 23  1  0
  4 24  1  0
  5 25  1  0
  5 26  1  0
  7 27  1  0
  9 28  1  0
 11 29  1  0
 12 30  1  0
 12 31  1  0
 18 32  1  0
 19 33  1  0
 20 34  1  0
 21 35  1  0
M  END
>  <Energy>  (535) 
120.73228274981369

>  <compound_id>  (535) 
5542

>  <target_id>  (535) 
1

>  <reference_id>  (535) 
45

>  <inspiration_ids>  (535) 
[45, 88]

>  <energy_score>  (535) 
4.508473955134832

>  <distance_score>  (535) 
2.076487350165202

>  <path>  (535) 
/opt/xchem-fragalysis-2/maxwin/BulkDock/SCRATCH/511018/C5542-P45/C5542-P45.minimised.mol

>  <scratch_subdir>  (535) 
/opt/xchem-fragalysis-2/maxwin/BulkDock/SCRATCH/511018/C5542-P45

>  <fragmenstein_runtime>  (535) 
3.4948601722717285

>  <fragmenstein_outcome>  (535) 
too moved

>  <fragmenstein_mode>  (535) 
expansion

>  <fragmenstein_error>  (535) 


$$$$
C5542-P88
     RDKit          3D

 35 37  0  0  0  0  0  0  0  0999 V2000
  -13.8548  -26.9069   30.5665 O   0  0  0  0  0  0  0  0  0  0  0  0
  -13.8287  -25.9493   29.8007 C   0  0  0  0  0  0  0  0  0  0  0  0
  -14.8644  -25.6707   28.9761 O   0  0  0  0  0  0  0  0  0  0  0  0
  -12.6052  -25.0097   29.6658 C   0  0  0  0  0  0  0  0  0  0  0  0
  -12.8173  -23.5306   29.4071 C   0  0  0  0  0  0  0  0  0  0  0  0
  -12.0864  -22.4626   30.1749 C   0  0  0  0  0  0  0  0  0  0  0  0
  -11.7370  -21.2045   29.7156 C   0  0  0  0  0  0  0  0  0  0  0  0
  -11.1678  -20.3424   30.6164 N   0  0  0  0  0  0  0  0  0  0  0  0
  -11.0451  -20.9581   31.7661 C   0  0  0  0  0  0  0  0  0  0  0  0
  -11.5558  -22.5691   31.7991 S   0  0  0  0  0  0  0  0  0  0  0  0
  -11.5052  -25.4125   30.5752 N   0  0  0  0  0  0  0  0  0  0  0  0
  -10.1640  -25.0365   30.0919 C   0  0  0  0  0  0  0  0  0  0  0  0
  -10.0697  -25.2018   28.6193 C   0  0  0  0  0  0  0  0  0  0  0  0
  -10.0842  -24.1833   27.6935 C   0  0  0  0  0  0  0  0  0  0  0  0
   -9.8026  -22.5613   28.0073 Cl  0  0  0  0  0  0  0  0  0  0  0  0
  -10.7092  -24.5608   26.5430 N   0  0  0  0  0  0  0  0  0  0  0  0
  -11.1666  -25.7569   26.8024 C   0  0  0  0  0  0  0  0  0  0  0  0
  -12.3405  -26.3996   26.3080 C   0  0  0  0  0  0  0  0  0  0  0  0
  -12.7883  -27.5332   26.8848 C   0  0  0  0  0  0  0  0  0  0  0  0
  -12.0792  -28.1708   27.9774 C   0  0  0  0  0  0  0  0  0  0  0  0
  -11.0165  -27.5405   28.4939 C   0  0  0  0  0  0  0  0  0  0  0  0
  -10.5919  -26.3009   27.9526 N   0  0  0  0  0  0  0  0  0  0  0  0
  -14.7162  -24.9644   28.3182 H   0  0  0  0  0  0  0  0  0  0  0  0
  -12.4222  -25.3439   28.6719 H   0  0  0  0  0  0  0  0  0  0  0  0
  -12.6362  -23.3429   28.3408 H   0  0  0  0  0  0  0  0  0  0  0  0
  -13.8717  -23.3341   29.5526 H   0  0  0  0  0  0  0  0  0  0  0  0
  -11.8616  -20.8587   28.7000 H   0  0  0  0  0  0  0  0  0  0  0  0
  -10.6296  -20.4703   32.6383 H   0  0  0  0  0  0  0  0  0  0  0  0
  -11.5638  -26.4141   30.7544 H   0  0  0  0  0  0  0  0  0  0  0  0
   -9.4156  -25.5679   30.6586 H   0  0  0  0  0  0  0  0  0  0  0  0
   -9.9189  -24.0076   30.3473 H   0  0  0  0  0  0  0  0  0  0  0  0
  -12.9026  -25.9213   25.5184 H   0  0  0  0  0  0  0  0  0  0  0  0
  -13.7134  -27.9966   26.5542 H   0  0  0  0  0  0  0  0  0  0  0  0
  -12.4849  -29.0783   28.4158 H   0  0  0  0  0  0  0  0  0  0  0  0
  -10.6141  -27.9294   29.4142 H   0  0  0  0  0  0  0  0  0  0  0  0
  1  2  2  0
  2  3  1  0
  2  4  1  0
  4  5  1  0
  5  6  1  0
  6  7  2  0
  7  8  1  0
  8  9  2  0
  9 10  1  0
  4 11  1  0
 11 12  1  0
 12 13  1  0
 13 14  2  0
 14 15  1  0
 14 16  1  0
 16 17  2  0
 17 18  1  0
 18 19  2  0
 19 20  1  0
 20 21  2  0
 21 22  1  0
 10  6  1  0
 22 13  1  0
 22 17  1  0
  3 23  1  0
  4 24  1  0
  5 25  1  0
  5 26  1  0
  7 27  1  0
  9 28  1  0
 11 29  1  0
 12 30  1  0
 12 31  1  0
 18 32  1  0
 19 33  1  0
 20 34  1  0
 21 35  1  0
M  END
>  <Energy>  (536) 
107.05542971664667

>  <compound_id>  (536) 
5542

>  <target_id>  (536) 
1

>  <reference_id>  (536) 
88

>  <inspiration_ids>  (536) 
[45, 88]

>  <energy_score>  (536) 
-40.34734771816579

>  <distance_score>  (536) 
4.053340243157905

>  <path>  (536) 
/opt/xchem-fragalysis-2/maxwin/BulkDock/SCRATCH/511018/C5542-P88/C5542-P88.minimised.mol

>  <scratch_subdir>  (536) 
/opt/xchem-fragalysis-2/maxwin/BulkDock/SCRATCH/511018/C5542-P88

>  <fragmenstein_runtime>  (536) 
2.5621399879455566

>  <fragmenstein_outcome>  (536) 
too moved

>  <fragmenstein_mode>  (536) 
expansion

>  <fragmenstein_error>  (536) 


$$$$
C5552-P45
     RDKit          3D

 31 33  0  0  0  0  0  0  0  0999 V2000
   -7.2961  -27.1170   26.6554 C   0  0  0  0  0  0  0  0  0  0  0  0
   -8.6929  -27.5511   26.4711 N   0  0  0  0  0  0  0  0  0  0  0  0
   -8.8061  -29.0032   26.3531 C   0  0  0  0  0  0  0  0  0  0  0  0
   -9.6854  -26.7914   27.0699 C   0  0  0  0  0  0  0  0  0  0  0  0
  -10.5824  -25.9252   26.2917 C   0  0  0  0  0  0  0  0  0  0  0  0
  -11.1902  -24.8447   26.8208 C   0  0  0  0  0  0  0  0  0  0  0  0
  -11.0059  -24.5663   28.1949 C   0  0  0  0  0  0  0  0  0  0  0  0
  -11.3912  -23.5609   28.9455 N   0  0  0  0  0  0  0  0  0  0  0  0
  -10.9697  -23.9112   30.1930 C   0  0  0  0  0  0  0  0  0  0  0  0
  -11.2688  -23.1026   31.4554 C   0  0  0  0  0  0  0  0  0  0  0  0
  -11.8971  -21.8925   31.4362 C   0  0  0  0  0  0  0  0  0  0  0  0
  -12.1882  -21.3640   32.6705 N   0  0  0  0  0  0  0  0  0  0  0  0
  -11.8093  -22.2219   33.5914 C   0  0  0  0  0  0  0  0  0  0  0  0
  -10.9345  -23.5832   33.0469 S   0  0  0  0  0  0  0  0  0  0  0  0
  -10.2466  -25.0883   30.2129 C   0  0  0  0  0  0  0  0  0  0  0  0
   -9.6252  -25.7680   31.2115 N   0  0  0  0  0  0  0  0  0  0  0  0
  -10.3019  -25.5190   28.9247 N   0  0  0  0  0  0  0  0  0  0  0  0
   -9.6814  -26.6195   28.3906 C   0  0  0  0  0  0  0  0  0  0  0  0
   -6.9682  -27.3419   27.6623 H   0  0  0  0  0  0  0  0  0  0  0  0
   -6.6235  -27.6621   25.9893 H   0  0  0  0  0  0  0  0  0  0  0  0
   -7.1896  -26.0412   26.4867 H   0  0  0  0  0  0  0  0  0  0  0  0
   -8.5148  -29.3202   25.3471 H   0  0  0  0  0  0  0  0  0  0  0  0
   -8.1569  -29.5137   27.0667 H   0  0  0  0  0  0  0  0  0  0  0  0
   -9.8333  -29.3372   26.5289 H   0  0  0  0  0  0  0  0  0  0  0  0
  -10.7645  -26.1755   25.2578 H   0  0  0  0  0  0  0  0  0  0  0  0
  -11.8249  -24.1902   26.2332 H   0  0  0  0  0  0  0  0  0  0  0  0
  -12.1849  -21.3975   30.5210 H   0  0  0  0  0  0  0  0  0  0  0  0
  -12.0072  -22.0530   34.6374 H   0  0  0  0  0  0  0  0  0  0  0  0
   -9.4185  -26.7650   31.1817 H   0  0  0  0  0  0  0  0  0  0  0  0
   -9.7484  -25.4737   32.1838 H   0  0  0  0  0  0  0  0  0  0  0  0
   -9.0674  -27.2148   29.0399 H   0  0  0  0  0  0  0  0  0  0  0  0
  1  2  1  0
  2  3  1  0
  2  4  1  0
  4  5  1  0
  5  6  2  0
  6  7  1  0
  7  8  2  0
  8  9  1  0
  9 10  1  0
 10 11  2  0
 11 12  1  0
 12 13  2  0
 13 14  1  0
  9 15  2  0
 15 16  1  0
 15 17  1  0
 17 18  1  0
 18  4  2  0
 17  7  1  0
 14 10  1  0
  1 19  1  0
  1 20  1  0
  1 21  1  0
  3 22  1  0
  3 23  1  0
  3 24  1  0
  5 25  1  0
  6 26  1  0
 11 27  1  0
 13 28  1  0
 16 29  1  0
 16 30  1  0
 18 31  1  0
M  END
>  <Energy>  (537) 
73.485989934256708

>  <compound_id>  (537) 
5552

>  <target_id>  (537) 
1

>  <reference_id>  (537) 
45

>  <inspiration_ids>  (537) 
[45, 88]

>  <energy_score>  (537) 
-63.674104512784425

>  <distance_score>  (537) 
1.8663706454207005

>  <path>  (537) 
/opt/xchem-fragalysis-2/maxwin/BulkDock/SCRATCH/511018/C5552-P45/C5552-P45.minimised.mol

>  <scratch_subdir>  (537) 
/opt/xchem-fragalysis-2/maxwin/BulkDock/SCRATCH/511018/C5552-P45

>  <fragmenstein_runtime>  (537) 
18.877206802368164

>  <fragmenstein_outcome>  (537) 
too moved

>  <fragmenstein_mode>  (537) 
expansion

>  <fragmenstein_error>  (537) 


$$$$
C5552-P88
     RDKit          3D

 31 33  0  0  0  0  0  0  0  0999 V2000
   -8.8143  -27.1995   27.2247 C   0  0  0  0  0  0  0  0  0  0  0  0
  -10.2320  -27.1746   27.7433 N   0  0  0  0  0  0  0  0  0  0  0  0
  -10.7049  -28.3542   28.5138 C   0  0  0  0  0  0  0  0  0  0  0  0
  -10.8107  -25.9294   27.9525 C   0  0  0  0  0  0  0  0  0  0  0  0
  -12.2208  -25.6253   27.7439 C   0  0  0  0  0  0  0  0  0  0  0  0
  -12.7722  -24.4826   28.2207 C   0  0  0  0  0  0  0  0  0  0  0  0
  -11.9884  -23.6079   29.0390 C   0  0  0  0  0  0  0  0  0  0  0  0
  -12.2839  -22.6505   29.9009 N   0  0  0  0  0  0  0  0  0  0  0  0
  -11.1570  -22.5660   30.6958 C   0  0  0  0  0  0  0  0  0  0  0  0
  -11.0923  -22.0390   32.1388 C   0  0  0  0  0  0  0  0  0  0  0  0
  -12.0231  -21.2430   32.7496 C   0  0  0  0  0  0  0  0  0  0  0  0
  -11.8263  -21.0586   34.1033 N   0  0  0  0  0  0  0  0  0  0  0  0
  -10.8080  -21.7876   34.4884 C   0  0  0  0  0  0  0  0  0  0  0  0
   -9.8918  -22.5251   33.2697 S   0  0  0  0  0  0  0  0  0  0  0  0
  -10.1024  -23.2602   30.1620 C   0  0  0  0  0  0  0  0  0  0  0  0
   -8.8310  -23.5083   30.5904 N   0  0  0  0  0  0  0  0  0  0  0  0
  -10.6514  -23.9165   29.1102 N   0  0  0  0  0  0  0  0  0  0  0  0
  -10.0618  -24.9721   28.4956 C   0  0  0  0  0  0  0  0  0  0  0  0
   -8.8965  -26.6821   26.2983 H   0  0  0  0  0  0  0  0  0  0  0  0
   -8.4062  -28.2092   27.1065 H   0  0  0  0  0  0  0  0  0  0  0  0
   -8.1010  -26.5663   27.7258 H   0  0  0  0  0  0  0  0  0  0  0  0
  -11.6741  -28.6916   28.1252 H   0  0  0  0  0  0  0  0  0  0  0  0
  -10.0059  -29.1944   28.4467 H   0  0  0  0  0  0  0  0  0  0  0  0
  -10.8754  -28.1021   29.5645 H   0  0  0  0  0  0  0  0  0  0  0  0
  -12.7988  -26.3218   27.1459 H   0  0  0  0  0  0  0  0  0  0  0  0
  -13.8158  -24.2506   28.0524 H   0  0  0  0  0  0  0  0  0  0  0  0
  -12.8904  -20.8039   32.2709 H   0  0  0  0  0  0  0  0  0  0  0  0
  -10.5461  -21.8884   35.5272 H   0  0  0  0  0  0  0  0  0  0  0  0
   -8.5710  -24.4920   30.6475 H   0  0  0  0  0  0  0  0  0  0  0  0
   -8.5651  -23.0642   31.4721 H   0  0  0  0  0  0  0  0  0  0  0  0
   -9.0160  -25.0823   28.7077 H   0  0  0  0  0  0  0  0  0  0  0  0
  1  2  1  0
  2  3  1  0
  2  4  1  0
  4  5  1  0
  5  6  2  0
  6  7  1  0
  7  8  2  0
  8  9  1  0
  9 10  1  0
 10 11  2  0
 11 12  1  0
 12 13  2  0
 13 14  1  0
  9 15  2  0
 15 16  1  0
 15 17  1  0
 17 18  1  0
 18  4  2  0
 17  7  1  0
 14 10  1  0
  1 19  1  0
  1 20  1  0
  1 21  1  0
  3 22  1  0
  3 23  1  0
  3 24  1  0
  5 25  1  0
  6 26  1  0
 11 27  1  0
 13 28  1  0
 16 29  1  0
 16 30  1  0
 18 31  1  0
M  END
>  <Energy>  (538) 
95.649124840385539

>  <compound_id>  (538) 
5552

>  <target_id>  (538) 
1

>  <reference_id>  (538) 
88

>  <inspiration_ids>  (538) 
[45, 88]

>  <energy_score>  (538) 
-41.51096960665558

>  <distance_score>  (538) 
2.482491270323252

>  <path>  (538) 
/opt/xchem-fragalysis-2/maxwin/BulkDock/SCRATCH/511018/C5552-P88/C5552-P88.minimised.mol

>  <scratch_subdir>  (538) 
/opt/xchem-fragalysis-2/maxwin/BulkDock/SCRATCH/511018/C5552-P88

>  <fragmenstein_runtime>  (538) 
26.52653431892395

>  <fragmenstein_outcome>  (538) 
too moved

>  <fragmenstein_mode>  (538) 
expansion

>  <fragmenstein_error>  (538) 


$$$$
C5556-P45
     RDKit          3D

 26 29  0  0  0  0  0  0  0  0999 V2000
  -11.7364  -30.7115   27.7218 Br  0  0  0  0  0  0  0  0  0  0  0  0
  -10.0809  -30.4814   26.8709 C   0  0  0  0  0  0  0  0  0  0  0  0
   -9.6209  -31.3259   25.9303 C   0  0  0  0  0  0  0  0  0  0  0  0
   -8.5168  -30.9721   25.0600 C   0  0  0  0  0  0  0  0  0  0  0  0
   -7.8221  -29.8602   25.3373 C   0  0  0  0  0  0  0  0  0  0  0  0
   -8.2701  -29.0085   26.3204 N   0  0  0  0  0  0  0  0  0  0  0  0
   -7.8253  -27.7579   26.6541 C   0  0  0  0  0  0  0  0  0  0  0  0
   -8.8172  -27.2849   27.4671 C   0  0  0  0  0  0  0  0  0  0  0  0
   -9.2860  -25.8604   27.6449 C   0  0  0  0  0  0  0  0  0  0  0  0
  -10.0592  -25.5064   28.6417 N   0  0  0  0  0  0  0  0  0  0  0  0
  -10.5989  -24.3672   28.1641 C   0  0  0  0  0  0  0  0  0  0  0  0
  -11.3201  -23.3919   29.0693 C   0  0  0  0  0  0  0  0  0  0  0  0
  -11.7856  -22.1807   28.6594 C   0  0  0  0  0  0  0  0  0  0  0  0
  -12.2678  -21.3860   29.6670 N   0  0  0  0  0  0  0  0  0  0  0  0
  -12.0920  -21.9865   30.8202 C   0  0  0  0  0  0  0  0  0  0  0  0
  -11.4854  -23.5647   30.7374 S   0  0  0  0  0  0  0  0  0  0  0  0
  -10.3153  -24.0951   26.8924 N   0  0  0  0  0  0  0  0  0  0  0  0
   -9.2799  -24.9781   26.6114 O   0  0  0  0  0  0  0  0  0  0  0  0
   -9.6707  -28.2537   27.8733 N   0  0  0  0  0  0  0  0  0  0  0  0
   -9.4024  -29.2562   27.0767 C   0  0  0  0  0  0  0  0  0  0  0  0
  -10.1626  -32.2248   25.6723 H   0  0  0  0  0  0  0  0  0  0  0  0
   -8.1996  -31.6682   24.2914 H   0  0  0  0  0  0  0  0  0  0  0  0
   -6.8971  -29.6172   24.8496 H   0  0  0  0  0  0  0  0  0  0  0  0
   -6.9937  -27.2886   26.1535 H   0  0  0  0  0  0  0  0  0  0  0  0
  -11.7534  -21.8243   27.6397 H   0  0  0  0  0  0  0  0  0  0  0  0
  -12.3352  -21.5269   31.7685 H   0  0  0  0  0  0  0  0  0  0  0  0
  1  2  1  0
  2  3  2  0
  3  4  1  0
  4  5  2  0
  5  6  1  0
  6  7  1  0
  7  8  2  0
  8  9  1  0
  9 10  2  0
 10 11  1  0
 11 12  1  0
 12 13  2  0
 13 14  1  0
 14 15  2  0
 15 16  1  0
 11 17  2  0
 17 18  1  0
  8 19  1  0
 19 20  2  0
 20  2  1  0
 20  6  1  0
 18  9  1  0
 16 12  1  0
  3 21  1  0
  4 22  1  0
  5 23  1  0
  7 24  1  0
 13 25  1  0
 15 26  1  0
M  END
>  <Energy>  (539) 
92.748343011142708

>  <compound_id>  (539) 
5556

>  <target_id>  (539) 
1

>  <reference_id>  (539) 
45

>  <inspiration_ids>  (539) 
[45, 88]

>  <energy_score>  (539) 
-28.023204562195474

>  <distance_score>  (539) 
3.065534858797794

>  <path>  (539) 
/opt/xchem-fragalysis-2/maxwin/BulkDock/SCRATCH/511018/C5556-P45/C5556-P45.minimised.mol

>  <scratch_subdir>  (539) 
/opt/xchem-fragalysis-2/maxwin/BulkDock/SCRATCH/511018/C5556-P45

>  <fragmenstein_runtime>  (539) 
2.593982696533203

>  <fragmenstein_outcome>  (539) 
too moved

>  <fragmenstein_mode>  (539) 
expansion

>  <fragmenstein_error>  (539) 


$$$$
C5556-P88
     RDKit          3D

 26 29  0  0  0  0  0  0  0  0999 V2000
  -10.6326  -31.9285   27.4333 Br  0  0  0  0  0  0  0  0  0  0  0  0
   -9.0615  -31.1266   26.7862 C   0  0  0  0  0  0  0  0  0  0  0  0
   -8.3230  -31.7499   25.8387 C   0  0  0  0  0  0  0  0  0  0  0  0
   -7.3018  -31.0683   25.0582 C   0  0  0  0  0  0  0  0  0  0  0  0
   -7.1270  -29.7584   25.2580 C   0  0  0  0  0  0  0  0  0  0  0  0
   -7.8599  -29.1423   26.2793 N   0  0  0  0  0  0  0  0  0  0  0  0
   -7.7408  -27.8773   26.7793 C   0  0  0  0  0  0  0  0  0  0  0  0
   -8.9229  -27.6017   27.3751 C   0  0  0  0  0  0  0  0  0  0  0  0
   -9.9237  -26.2879   27.4177 C   0  0  0  0  0  0  0  0  0  0  0  0
  -10.6118  -25.9230   28.4705 N   0  0  0  0  0  0  0  0  0  0  0  0
  -11.0975  -24.7174   28.0621 C   0  0  0  0  0  0  0  0  0  0  0  0
  -11.3243  -23.5999   29.0805 C   0  0  0  0  0  0  0  0  0  0  0  0
  -11.5768  -22.2861   28.7835 C   0  0  0  0  0  0  0  0  0  0  0  0
  -11.7375  -21.4659   29.8830 N   0  0  0  0  0  0  0  0  0  0  0  0
  -11.5446  -22.1677   30.9798 C   0  0  0  0  0  0  0  0  0  0  0  0
  -11.1266  -23.8127   30.7577 S   0  0  0  0  0  0  0  0  0  0  0  0
  -11.1510  -24.5488   26.7393 N   0  0  0  0  0  0  0  0  0  0  0  0
  -10.3793  -25.6203   26.2928 O   0  0  0  0  0  0  0  0  0  0  0  0
   -9.4597  -28.8318   27.7840 N   0  0  0  0  0  0  0  0  0  0  0  0
   -8.8058  -29.7543   27.0869 C   0  0  0  0  0  0  0  0  0  0  0  0
   -8.5444  -32.7726   25.5431 H   0  0  0  0  0  0  0  0  0  0  0  0
   -6.7157  -31.6303   24.3379 H   0  0  0  0  0  0  0  0  0  0  0  0
   -6.3684  -29.1829   24.7481 H   0  0  0  0  0  0  0  0  0  0  0  0
   -6.8232  -27.3759   26.6157 H   0  0  0  0  0  0  0  0  0  0  0  0
  -11.6564  -21.8671   27.7874 H   0  0  0  0  0  0  0  0  0  0  0  0
  -11.6394  -21.7336   31.9675 H   0  0  0  0  0  0  0  0  0  0  0  0
  1  2  1  0
  2  3  2  0
  3  4  1  0
  4  5  2  0
  5  6  1  0
  6  7  1  0
  7  8  2  0
  8  9  1  0
  9 10  2  0
 10 11  1  0
 11 12  1  0
 12 13  2  0
 13 14  1  0
 14 15  2  0
 15 16  1  0
 11 17  2  0
 17 18  1  0
  8 19  1  0
 19 20  2  0
 20  2  1  0
 20  6  1  0
 18  9  1  0
 16 12  1  0
  3 21  1  0
  4 22  1  0
  5 23  1  0
  7 24  1  0
 13 25  1  0
 15 26  1  0
M  END
>  <Energy>  (540) 
112.39321951729114

>  <compound_id>  (540) 
5556

>  <target_id>  (540) 
1

>  <reference_id>  (540) 
88

>  <inspiration_ids>  (540) 
[45, 88]

>  <energy_score>  (540) 
-37.44098238536054

>  <distance_score>  (540) 
2.9636367600683484

>  <path>  (540) 
/opt/xchem-fragalysis-2/maxwin/BulkDock/SCRATCH/511018/C5556-P88/C5556-P88.minimised.mol

>  <scratch_subdir>  (540) 
/opt/xchem-fragalysis-2/maxwin/BulkDock/SCRATCH/511018/C5556-P88

>  <fragmenstein_runtime>  (540) 
1.3719432353973389

>  <fragmenstein_outcome>  (540) 
too moved

>  <fragmenstein_mode>  (540) 
expansion

>  <fragmenstein_error>  (540) 


$$$$
C5557-P45
     RDKit          3D

 26 29  0  0  0  0  0  0  0  0999 V2000
   -8.8864  -29.6068   26.4290 Cl  0  0  0  0  0  0  0  0  0  0  0  0
   -7.5788  -28.5333   26.7133 C   0  0  0  0  0  0  0  0  0  0  0  0
   -6.3449  -28.7736   26.2675 C   0  0  0  0  0  0  0  0  0  0  0  0
   -5.2583  -27.8204   26.4630 C   0  0  0  0  0  0  0  0  0  0  0  0
   -5.5615  -26.5481   26.7620 C   0  0  0  0  0  0  0  0  0  0  0  0
   -6.8916  -26.2643   26.9981 N   0  0  0  0  0  0  0  0  0  0  0  0
   -7.6276  -25.1079   26.8648 C   0  0  0  0  0  0  0  0  0  0  0  0
   -8.9060  -25.5920   27.0537 C   0  0  0  0  0  0  0  0  0  0  0  0
  -10.2752  -25.2088   26.4829 C   0  0  0  0  0  0  0  0  0  0  0  0
  -11.3784  -25.6235   27.0718 N   0  0  0  0  0  0  0  0  0  0  0  0
  -11.9477  -24.4092   27.0528 C   0  0  0  0  0  0  0  0  0  0  0  0
  -11.8432  -23.5816   28.3600 C   0  0  0  0  0  0  0  0  0  0  0  0
  -11.7902  -22.2220   28.4256 C   0  0  0  0  0  0  0  0  0  0  0  0
  -11.7256  -21.6824   29.6886 N   0  0  0  0  0  0  0  0  0  0  0  0
  -11.6070  -22.6563   30.5556 C   0  0  0  0  0  0  0  0  0  0  0  0
  -11.4985  -24.2221   29.8823 S   0  0  0  0  0  0  0  0  0  0  0  0
  -11.8727  -23.8530   25.8336 N   0  0  0  0  0  0  0  0  0  0  0  0
  -10.5763  -24.3325   25.4725 O   0  0  0  0  0  0  0  0  0  0  0  0
   -8.8864  -26.7263   27.7801 N   0  0  0  0  0  0  0  0  0  0  0  0
   -7.8320  -27.2580   27.2376 C   0  0  0  0  0  0  0  0  0  0  0  0
   -6.1738  -29.6782   25.7020 H   0  0  0  0  0  0  0  0  0  0  0  0
   -4.2484  -28.1001   26.2094 H   0  0  0  0  0  0  0  0  0  0  0  0
   -4.8414  -25.7405   26.7537 H   0  0  0  0  0  0  0  0  0  0  0  0
   -7.2156  -24.2142   26.4228 H   0  0  0  0  0  0  0  0  0  0  0  0
  -11.7862  -21.5897   27.5574 H   0  0  0  0  0  0  0  0  0  0  0  0
  -11.5288  -22.4710   31.6198 H   0  0  0  0  0  0  0  0  0  0  0  0
  1  2  1  0
  2  3  2  0
  3  4  1  0
  4  5  2  0
  5  6  1  0
  6  7  1  0
  7  8  2  0
  8  9  1  0
  9 10  2  0
 10 11  1  0
 11 12  1  0
 12 13  2  0
 13 14  1  0
 14 15  2  0
 15 16  1  0
 11 17  2  0
 17 18  1  0
  8 19  1  0
 19 20  2  0
 20  2  1  0
 20  6  1  0
 18  9  1  0
 16 12  1  0
  3 21  1  0
  4 22  1  0
  5 23  1  0
  7 24  1  0
 13 25  1  0
 15 26  1  0
M  END
>  <Energy>  (541) 
147.09183036982301

>  <compound_id>  (541) 
5557

>  <target_id>  (541) 
1

>  <reference_id>  (541) 
45

>  <inspiration_ids>  (541) 
[45, 88]

>  <energy_score>  (541) 
-4.432365877419954

>  <distance_score>  (541) 
1.4895841416406141

>  <path>  (541) 
/opt/xchem-fragalysis-2/maxwin/BulkDock/SCRATCH/511018/C5557-P45/C5557-P45.minimised.mol

>  <scratch_subdir>  (541) 
/opt/xchem-fragalysis-2/maxwin/BulkDock/SCRATCH/511018/C5557-P45

>  <fragmenstein_runtime>  (541) 
1.3074398040771484

>  <fragmenstein_outcome>  (541) 
too moved

>  <fragmenstein_mode>  (541) 
expansion

>  <fragmenstein_error>  (541) 


$$$$
C5557-P88
     RDKit          3D

 26 29  0  0  0  0  0  0  0  0999 V2000
  -10.4914  -31.8552   27.4414 Cl  0  0  0  0  0  0  0  0  0  0  0  0
   -9.0604  -31.1074   26.8117 C   0  0  0  0  0  0  0  0  0  0  0  0
   -8.3408  -31.7436   25.8614 C   0  0  0  0  0  0  0  0  0  0  0  0
   -7.3238  -31.0688   25.0678 C   0  0  0  0  0  0  0  0  0  0  0  0
   -7.1393  -29.7588   25.2631 C   0  0  0  0  0  0  0  0  0  0  0  0
   -7.8634  -29.1340   26.2863 N   0  0  0  0  0  0  0  0  0  0  0  0
   -7.7411  -27.8675   26.7812 C   0  0  0  0  0  0  0  0  0  0  0  0
   -8.9249  -27.5852   27.3721 C   0  0  0  0  0  0  0  0  0  0  0  0
   -9.9251  -26.2760   27.4138 C   0  0  0  0  0  0  0  0  0  0  0  0
  -10.6107  -25.9114   28.4681 N   0  0  0  0  0  0  0  0  0  0  0  0
  -11.0982  -24.7065   28.0608 C   0  0  0  0  0  0  0  0  0  0  0  0
  -11.3243  -23.5906   29.0809 C   0  0  0  0  0  0  0  0  0  0  0  0
  -11.5757  -22.2762   28.7861 C   0  0  0  0  0  0  0  0  0  0  0  0
  -11.7365  -21.4579   29.8870 N   0  0  0  0  0  0  0  0  0  0  0  0
  -11.5446  -22.1618   30.9826 C   0  0  0  0  0  0  0  0  0  0  0  0
  -11.1270  -23.8065   30.7577 S   0  0  0  0  0  0  0  0  0  0  0  0
  -11.1542  -24.5377   26.7380 N   0  0  0  0  0  0  0  0  0  0  0  0
  -10.3844  -25.6099   26.2895 O   0  0  0  0  0  0  0  0  0  0  0  0
   -9.4624  -28.8118   27.7893 N   0  0  0  0  0  0  0  0  0  0  0  0
   -8.8070  -29.7376   27.1003 C   0  0  0  0  0  0  0  0  0  0  0  0
   -8.5692  -32.7691   25.5823 H   0  0  0  0  0  0  0  0  0  0  0  0
   -6.7464  -31.6365   24.3449 H   0  0  0  0  0  0  0  0  0  0  0  0
   -6.3819  -29.1888   24.7453 H   0  0  0  0  0  0  0  0  0  0  0  0
   -6.8207  -27.3716   26.6171 H   0  0  0  0  0  0  0  0  0  0  0  0
  -11.6541  -21.8554   27.7907 H   0  0  0  0  0  0  0  0  0  0  0  0
  -11.6399  -21.7294   31.9711 H   0  0  0  0  0  0  0  0  0  0  0  0
  1  2  1  0
  2  3  2  0
  3  4  1  0
  4  5  2  0
  5  6  1  0
  6  7  1  0
  7  8  2  0
  8  9  1  0
  9 10  2  0
 10 11  1  0
 11 12  1  0
 12 13  2  0
 13 14  1  0
 14 15  2  0
 15 16  1  0
 11 17  2  0
 17 18  1  0
  8 19  1  0
 19 20  2  0
 20  2  1  0
 20  6  1  0
 18  9  1  0
 16 12  1  0
  3 21  1  0
  4 22  1  0
  5 23  1  0
  7 24  1  0
 13 25  1  0
 15 26  1  0
M  END
>  <Energy>  (542) 
112.83996622715847

>  <compound_id>  (542) 
5557

>  <target_id>  (542) 
1

>  <reference_id>  (542) 
88

>  <inspiration_ids>  (542) 
[45, 88]

>  <energy_score>  (542) 
-38.68423002008319

>  <distance_score>  (542) 
2.958032925671377

>  <path>  (542) 
/opt/xchem-fragalysis-2/maxwin/BulkDock/SCRATCH/511018/C5557-P88/C5557-P88.minimised.mol

>  <scratch_subdir>  (542) 
/opt/xchem-fragalysis-2/maxwin/BulkDock/SCRATCH/511018/C5557-P88

>  <fragmenstein_runtime>  (542) 
1.3077194690704346

>  <fragmenstein_outcome>  (542) 
too moved

>  <fragmenstein_mode>  (542) 
expansion

>  <fragmenstein_error>  (542) 


$$$$
C5558-P45
     RDKit          3D

 32 34  0  0  0  0  0  0  0  0999 V2000
  -11.9100  -23.8614   25.0476 C   0  0  0  0  0  0  0  0  0  0  0  0
  -11.5101  -24.6663   26.2246 N   0  0  0  0  0  0  0  0  0  0  0  0
  -12.2116  -24.1903   27.4272 C   0  0  0  0  0  0  0  0  0  0  0  0
  -11.5108  -23.4726   28.4874 C   0  0  0  0  0  0  0  0  0  0  0  0
  -11.2742  -22.1323   28.5022 C   0  0  0  0  0  0  0  0  0  0  0  0
  -11.2937  -21.5350   29.7388 N   0  0  0  0  0  0  0  0  0  0  0  0
  -11.4655  -22.4492   30.6601 C   0  0  0  0  0  0  0  0  0  0  0  0
  -11.4450  -24.0523   30.0769 S   0  0  0  0  0  0  0  0  0  0  0  0
  -11.8739  -26.3159   25.9982 S   0  0  0  0  0  0  0  0  0  0  0  0
  -11.2870  -26.8384   24.7990 O   0  0  0  0  0  0  0  0  0  0  0  0
  -13.3013  -26.4621   26.2296 O   0  0  0  0  0  0  0  0  0  0  0  0
  -11.0917  -27.0672   27.3350 C   0  0  0  0  0  0  0  0  0  0  0  0
   -9.9598  -26.7323   28.0457 C   0  0  0  0  0  0  0  0  0  0  0  0
   -8.7113  -25.6717   27.5833 Cl  0  0  0  0  0  0  0  0  0  0  0  0
  -10.0492  -27.2243   29.3236 N   0  0  0  0  0  0  0  0  0  0  0  0
  -11.1225  -27.9863   29.3229 C   0  0  0  0  0  0  0  0  0  0  0  0
  -11.6690  -28.8400   30.3264 C   0  0  0  0  0  0  0  0  0  0  0  0
  -12.6461  -29.7086   30.0134 C   0  0  0  0  0  0  0  0  0  0  0  0
  -13.1942  -29.7725   28.6749 C   0  0  0  0  0  0  0  0  0  0  0  0
  -12.7209  -28.9346   27.7418 C   0  0  0  0  0  0  0  0  0  0  0  0
  -11.6948  -28.0489   28.0662 N   0  0  0  0  0  0  0  0  0  0  0  0
  -12.9022  -24.1548   24.7009 H   0  0  0  0  0  0  0  0  0  0  0  0
  -11.9815  -22.8043   25.2942 H   0  0  0  0  0  0  0  0  0  0  0  0
  -11.1651  -23.9699   24.2627 H   0  0  0  0  0  0  0  0  0  0  0  0
  -12.9418  -23.4700   27.0767 H   0  0  0  0  0  0  0  0  0  0  0  0
  -12.7453  -24.9982   27.9321 H   0  0  0  0  0  0  0  0  0  0  0  0
  -11.2740  -21.5605   27.5942 H   0  0  0  0  0  0  0  0  0  0  0  0
  -11.5358  -22.2044   31.7127 H   0  0  0  0  0  0  0  0  0  0  0  0
  -11.2121  -28.8423   31.3120 H   0  0  0  0  0  0  0  0  0  0  0  0
  -13.0361  -30.3990   30.7559 H   0  0  0  0  0  0  0  0  0  0  0  0
  -13.9924  -30.4778   28.4654 H   0  0  0  0  0  0  0  0  0  0  0  0
  -13.1233  -28.9171   26.7379 H   0  0  0  0  0  0  0  0  0  0  0  0
  1  2  1  0
  2  3  1  0
  3  4  1  0
  4  5  2  0
  5  6  1  0
  6  7  2  0
  7  8  1  0
  2  9  1  0
  9 10  2  0
  9 11  2  0
  9 12  1  0
 12 13  2  0
 13 14  1  0
 13 15  1  0
 15 16  2  0
 16 17  1  0
 17 18  2  0
 18 19  1  0
 19 20  2  0
 20 21  1  0
  8  4  1  0
 21 12  1  0
 21 16  1  0
  1 22  1  0
  1 23  1  0
  1 24  1  0
  3 25  1  0
  3 26  1  0
  5 27  1  0
  7 28  1  0
 17 29  1  0
 18 30  1  0
 19 31  1  0
 20 32  1  0
M  END
>  <Energy>  (543) 
-85.300204885386577

>  <compound_id>  (543) 
5558

>  <target_id>  (543) 
1

>  <reference_id>  (543) 
45

>  <inspiration_ids>  (543) 
[45, 88]

>  <energy_score>  (543) 
-48.733346133868565

>  <distance_score>  (543) 
4.433520589904803

>  <path>  (543) 
/opt/xchem-fragalysis-2/maxwin/BulkDock/SCRATCH/511018/C5558-P45/C5558-P45.minimised.mol

>  <scratch_subdir>  (543) 
/opt/xchem-fragalysis-2/maxwin/BulkDock/SCRATCH/511018/C5558-P45

>  <fragmenstein_runtime>  (543) 
4.2434306144714355

>  <fragmenstein_outcome>  (543) 
too moved

>  <fragmenstein_mode>  (543) 
expansion

>  <fragmenstein_error>  (543) 


$$$$
C5558-P88
     RDKit          3D

 32 34  0  0  0  0  0  0  0  0999 V2000
  -10.7237  -22.5058   24.2107 C   0  0  0  0  0  0  0  0  0  0  0  0
   -9.9556  -23.7007   24.7672 N   0  0  0  0  0  0  0  0  0  0  0  0
  -10.8023  -24.3692   25.9504 C   0  0  0  0  0  0  0  0  0  0  0  0
  -10.9844  -23.7964   27.3390 C   0  0  0  0  0  0  0  0  0  0  0  0
  -11.1396  -22.5106   27.8248 C   0  0  0  0  0  0  0  0  0  0  0  0
  -11.3689  -22.3763   29.1846 N   0  0  0  0  0  0  0  0  0  0  0  0
  -11.3827  -23.5657   29.7351 C   0  0  0  0  0  0  0  0  0  0  0  0
  -11.2436  -24.8905   28.6616 S   0  0  0  0  0  0  0  0  0  0  0  0
   -8.1304  -23.3681   24.9289 S   0  0  0  0  0  0  0  0  0  0  0  0
   -7.6355  -22.4874   23.9142 O   0  0  0  0  0  0  0  0  0  0  0  0
   -8.7125  -23.0690   26.3157 O   0  0  0  0  0  0  0  0  0  0  0  0
   -6.1274  -24.2316   25.8807 C   0  0  0  0  0  0  0  0  0  0  0  0
   -6.5528  -25.6601   27.4689 C   0  0  0  0  0  0  0  0  0  0  0  0
   -7.6859  -24.8992   29.2512 Cl  0  0  0  0  0  0  0  0  0  0  0  0
   -8.2087  -26.2131   27.6115 N   0  0  0  0  0  0  0  0  0  0  0  0
   -7.7284  -27.1118   26.9134 C   0  0  0  0  0  0  0  0  0  0  0  0
   -7.9484  -28.4669   26.5833 C   0  0  0  0  0  0  0  0  0  0  0  0
   -7.2121  -29.0306   25.6102 C   0  0  0  0  0  0  0  0  0  0  0  0
   -5.8592  -28.4972   25.5372 C   0  0  0  0  0  0  0  0  0  0  0  0
   -5.4677  -27.5574   26.4664 C   0  0  0  0  0  0  0  0  0  0  0  0
   -6.2969  -26.0895   27.0356 N   0  0  0  0  0  0  0  0  0  0  0  0
  -11.4485  -22.7646   23.4447 H   0  0  0  0  0  0  0  0  0  0  0  0
  -11.3468  -22.0398   24.9746 H   0  0  0  0  0  0  0  0  0  0  0  0
  -10.0660  -21.8000   23.7028 H   0  0  0  0  0  0  0  0  0  0  0  0
  -11.8467  -24.3809   25.6267 H   0  0  0  0  0  0  0  0  0  0  0  0
  -10.5164  -25.4243   25.9877 H   0  0  0  0  0  0  0  0  0  0  0  0
  -11.1047  -21.6085   27.2347 H   0  0  0  0  0  0  0  0  0  0  0  0
  -11.5081  -23.7019   30.8014 H   0  0  0  0  0  0  0  0  0  0  0  0
   -8.7317  -29.0241   27.0768 H   0  0  0  0  0  0  0  0  0  0  0  0
   -7.3773  -30.0511   25.2796 H   0  0  0  0  0  0  0  0  0  0  0  0
   -5.1450  -29.1565   25.0506 H   0  0  0  0  0  0  0  0  0  0  0  0
   -4.4925  -27.1904   26.6839 H   0  0  0  0  0  0  0  0  0  0  0  0
  1  2  1  0
  2  3  1  0
  3  4  1  0
  4  5  2  0
  5  6  1  0
  6  7  2  0
  7  8  1  0
  2  9  1  0
  9 10  2  0
  9 11  2  0
  9 12  1  0
 12 13  2  0
 13 14  1  0
 13 15  1  0
 15 16  2  0
 16 17  1  0
 17 18  2  0
 18 19  1  0
 19 20  2  0
 20 21  1  0
  8  4  1  0
 21 12  1  0
 21 16  1  0
  1 22  1  0
  1 23  1  0
  1 24  1  0
  3 25  1  0
  3 26  1  0
  5 27  1  0
  7 28  1  0
 17 29  1  0
 18 30  1  0
 19 31  1  0
 20 32  1  0
M  END
>  <Energy>  (544) 
1144.8480872108739

>  <compound_id>  (544) 
5558

>  <target_id>  (544) 
1

>  <reference_id>  (544) 
88

>  <inspiration_ids>  (544) 
[45, 88]

>  <energy_score>  (544) 
1181.4149459623904

>  <distance_score>  (544) 
1.3915572501179116

>  <path>  (544) 
/opt/xchem-fragalysis-2/maxwin/BulkDock/SCRATCH/511018/C5558-P88/C5558-P88.minimised.mol

>  <scratch_subdir>  (544) 
/opt/xchem-fragalysis-2/maxwin/BulkDock/SCRATCH/511018/C5558-P88

>  <fragmenstein_runtime>  (544) 
3.2167720794677734

>  <fragmenstein_outcome>  (544) 
too moved

>  <fragmenstein_mode>  (544) 
expansion

>  <fragmenstein_error>  (544) 


$$$$
C5559-P45
     RDKit          3D

 38 40  0  0  0  0  0  0  0  0999 V2000
  -13.5543  -29.5196   27.5433 C   0  0  0  0  0  0  0  0  0  0  0  0
  -12.6665  -28.6290   26.8774 O   0  0  0  0  0  0  0  0  0  0  0  0
  -13.3575  -27.6031   26.1716 C   0  0  0  0  0  0  0  0  0  0  0  0
  -12.3623  -26.5599   25.5728 C   0  0  0  0  0  0  0  0  0  0  0  0
  -11.1970  -26.0498   26.4139 N   0  0  0  0  0  0  0  0  0  0  0  0
  -12.2560  -25.1508   26.9541 C   0  0  0  0  0  0  0  0  0  0  0  0
  -11.8429  -24.0565   27.9300 C   0  0  0  0  0  0  0  0  0  0  0  0
  -11.5905  -22.7282   27.6714 C   0  0  0  0  0  0  0  0  0  0  0  0
  -11.5136  -21.8961   28.7652 N   0  0  0  0  0  0  0  0  0  0  0  0
  -11.6769  -22.5817   29.8616 C   0  0  0  0  0  0  0  0  0  0  0  0
  -11.9529  -24.2342   29.6210 S   0  0  0  0  0  0  0  0  0  0  0  0
  -10.0728  -25.3030   26.0588 C   0  0  0  0  0  0  0  0  0  0  0  0
   -9.7775  -24.7936   25.0237 O   0  0  0  0  0  0  0  0  0  0  0  0
   -9.1663  -25.2975   27.1792 C   0  0  0  0  0  0  0  0  0  0  0  0
   -8.0771  -24.4963   27.4413 C   0  0  0  0  0  0  0  0  0  0  0  0
   -7.8676  -24.4299   28.7910 N   0  0  0  0  0  0  0  0  0  0  0  0
   -8.7575  -25.2434   29.3219 C   0  0  0  0  0  0  0  0  0  0  0  0
   -9.1304  -25.5376   30.6733 C   0  0  0  0  0  0  0  0  0  0  0  0
   -9.8719  -26.6265   30.9321 C   0  0  0  0  0  0  0  0  0  0  0  0
  -10.4143  -27.4409   29.8745 C   0  0  0  0  0  0  0  0  0  0  0  0
  -10.0686  -27.1719   28.6109 C   0  0  0  0  0  0  0  0  0  0  0  0
   -9.3224  -26.0267   28.3373 N   0  0  0  0  0  0  0  0  0  0  0  0
  -14.2297  -29.9941   26.8251 H   0  0  0  0  0  0  0  0  0  0  0  0
  -14.1275  -28.9855   28.3070 H   0  0  0  0  0  0  0  0  0  0  0  0
  -12.9589  -30.2955   28.0320 H   0  0  0  0  0  0  0  0  0  0  0  0
  -13.9241  -28.0503   25.3494 H   0  0  0  0  0  0  0  0  0  0  0  0
  -14.0986  -27.1525   26.8336 H   0  0  0  0  0  0  0  0  0  0  0  0
  -11.7920  -27.1725   24.8584 H   0  0  0  0  0  0  0  0  0  0  0  0
  -12.8289  -25.8429   24.8780 H   0  0  0  0  0  0  0  0  0  0  0  0
  -12.7349  -24.5398   26.1733 H   0  0  0  0  0  0  0  0  0  0  0  0
  -12.8925  -25.7657   27.5945 H   0  0  0  0  0  0  0  0  0  0  0  0
  -11.5388  -22.2930   26.6855 H   0  0  0  0  0  0  0  0  0  0  0  0
  -11.6404  -22.1192   30.8393 H   0  0  0  0  0  0  0  0  0  0  0  0
   -7.5354  -23.8508   26.7632 H   0  0  0  0  0  0  0  0  0  0  0  0
   -8.7377  -24.9508   31.4905 H   0  0  0  0  0  0  0  0  0  0  0  0
  -10.0973  -26.9113   31.9512 H   0  0  0  0  0  0  0  0  0  0  0  0
  -11.0836  -28.2568   30.1237 H   0  0  0  0  0  0  0  0  0  0  0  0
  -10.4086  -27.7769   27.7810 H   0  0  0  0  0  0  0  0  0  0  0  0
  1  2  1  0
  2  3  1  0
  3  4  1  0
  4  5  1  0
  5  6  1  0
  6  7  1  0
  7  8  2  0
  8  9  1  0
  9 10  2  0
 10 11  1  0
  5 12  1  0
 12 13  2  0
 12 14  1  0
 14 15  2  0
 15 16  1  0
 16 17  2  0
 17 18  1  0
 18 19  2  0
 19 20  1  0
 20 21  2  0
 21 22  1  0
 11  7  1  0
 22 14  1  0
 22 17  1  0
  1 23  1  0
  1 24  1  0
  1 25  1  0
  3 26  1  0
  3 27  1  0
  4 28  1  0
  4 29  1  0
  6 30  1  0
  6 31  1  0
  8 32  1  0
 10 33  1  0
 15 34  1  0
 18 35  1  0
 19 36  1  0
 20 37  1  0
 21 38  1  0
M  END
>  <Energy>  (545) 
108.23326431192751

>  <compound_id>  (545) 
5559

>  <target_id>  (545) 
1

>  <reference_id>  (545) 
45

>  <inspiration_ids>  (545) 
[45, 88]

>  <energy_score>  (545) 
49.326696502630114

>  <distance_score>  (545) 
3.157193874825409

>  <path>  (545) 
/opt/xchem-fragalysis-2/maxwin/BulkDock/SCRATCH/511018/C5559-P45/C5559-P45.minimised.mol

>  <scratch_subdir>  (545) 
/opt/xchem-fragalysis-2/maxwin/BulkDock/SCRATCH/511018/C5559-P45

>  <fragmenstein_runtime>  (545) 
6.411766529083252

>  <fragmenstein_outcome>  (545) 
too moved

>  <fragmenstein_mode>  (545) 
expansion

>  <fragmenstein_error>  (545) 


$$$$
C5559-P88
     RDKit          3D

 38 40  0  0  0  0  0  0  0  0999 V2000
  -17.4479  -22.6974   25.0198 C   0  0  0  0  0  0  0  0  0  0  0  0
  -16.0514  -22.8930   24.8242 O   0  0  0  0  0  0  0  0  0  0  0  0
  -15.4857  -23.7426   25.8210 C   0  0  0  0  0  0  0  0  0  0  0  0
  -13.9487  -23.5252   25.8804 C   0  0  0  0  0  0  0  0  0  0  0  0
  -13.4458  -24.4893   26.9027 N   0  0  0  0  0  0  0  0  0  0  0  0
  -12.0761  -23.8159   26.5380 C   0  0  0  0  0  0  0  0  0  0  0  0
  -11.3216  -23.5286   27.8225 C   0  0  0  0  0  0  0  0  0  0  0  0
  -11.3421  -22.4003   28.6196 C   0  0  0  0  0  0  0  0  0  0  0  0
  -10.6454  -22.4843   29.8074 N   0  0  0  0  0  0  0  0  0  0  0  0
  -10.0096  -23.6305   29.8603 C   0  0  0  0  0  0  0  0  0  0  0  0
  -10.1811  -24.6297   28.4856 S   0  0  0  0  0  0  0  0  0  0  0  0
  -13.3216  -25.9039   26.8601 C   0  0  0  0  0  0  0  0  0  0  0  0
  -13.5043  -26.6748   25.9588 O   0  0  0  0  0  0  0  0  0  0  0  0
  -13.0121  -26.4267   28.1828 C   0  0  0  0  0  0  0  0  0  0  0  0
  -12.9608  -25.7698   29.3991 C   0  0  0  0  0  0  0  0  0  0  0  0
  -12.6543  -26.5962   30.4429 N   0  0  0  0  0  0  0  0  0  0  0  0
  -12.5882  -27.7884   29.8988 C   0  0  0  0  0  0  0  0  0  0  0  0
  -12.4463  -29.0675   30.4997 C   0  0  0  0  0  0  0  0  0  0  0  0
  -12.5141  -30.1751   29.7383 C   0  0  0  0  0  0  0  0  0  0  0  0
  -12.6528  -30.1044   28.3006 C   0  0  0  0  0  0  0  0  0  0  0  0
  -12.8127  -28.8995   27.7373 C   0  0  0  0  0  0  0  0  0  0  0  0
  -12.7892  -27.7476   28.5205 N   0  0  0  0  0  0  0  0  0  0  0  0
  -17.9720  -23.6578   25.0106 H   0  0  0  0  0  0  0  0  0  0  0  0
  -17.8260  -22.0821   24.1992 H   0  0  0  0  0  0  0  0  0  0  0  0
  -17.6316  -22.1740   25.9629 H   0  0  0  0  0  0  0  0  0  0  0  0
  -15.7197  -24.7832   25.5666 H   0  0  0  0  0  0  0  0  0  0  0  0
  -15.9263  -23.5389   26.8022 H   0  0  0  0  0  0  0  0  0  0  0  0
  -13.8425  -22.4736   26.1508 H   0  0  0  0  0  0  0  0  0  0  0  0
  -13.5915  -23.7378   24.8643 H   0  0  0  0  0  0  0  0  0  0  0  0
  -11.4949  -24.5572   25.9708 H   0  0  0  0  0  0  0  0  0  0  0  0
  -12.0051  -22.8737   25.9639 H   0  0  0  0  0  0  0  0  0  0  0  0
  -11.8778  -21.4881   28.4046 H   0  0  0  0  0  0  0  0  0  0  0  0
   -9.3964  -23.9167   30.7051 H   0  0  0  0  0  0  0  0  0  0  0  0
  -13.1151  -24.7115   29.5617 H   0  0  0  0  0  0  0  0  0  0  0  0
  -12.3437  -29.1273   31.5772 H   0  0  0  0  0  0  0  0  0  0  0  0
  -12.4817  -31.1603   30.1925 H   0  0  0  0  0  0  0  0  0  0  0  0
  -12.6839  -31.0226   27.7244 H   0  0  0  0  0  0  0  0  0  0  0  0
  -13.0007  -28.7794   26.6846 H   0  0  0  0  0  0  0  0  0  0  0  0
  1  2  1  0
  2  3  1  0
  3  4  1  0
  4  5  1  0
  5  6  1  0
  6  7  1  0
  7  8  2  0
  8  9  1  0
  9 10  2  0
 10 11  1  0
  5 12  1  0
 12 13  2  0
 12 14  1  0
 14 15  2  0
 15 16  1  0
 16 17  2  0
 17 18  1  0
 18 19  2  0
 19 20  1  0
 20 21  2  0
 21 22  1  0
 11  7  1  0
 22 14  1  0
 22 17  1  0
  1 23  1  0
  1 24  1  0
  1 25  1  0
  3 26  1  0
  3 27  1  0
  4 28  1  0
  4 29  1  0
  6 30  1  0
  6 31  1  0
  8 32  1  0
 10 33  1  0
 15 34  1  0
 18 35  1  0
 19 36  1  0
 20 37  1  0
 21 38  1  0
M  END
>  <Energy>  (546) 
82.356486598063483

>  <compound_id>  (546) 
5559

>  <target_id>  (546) 
1

>  <reference_id>  (546) 
88

>  <inspiration_ids>  (546) 
[45, 88]

>  <energy_score>  (546) 
23.449918788771214

>  <distance_score>  (546) 
4.941203424318548

>  <path>  (546) 
/opt/xchem-fragalysis-2/maxwin/BulkDock/SCRATCH/511018/C5559-P88/C5559-P88.minimised.mol

>  <scratch_subdir>  (546) 
/opt/xchem-fragalysis-2/maxwin/BulkDock/SCRATCH/511018/C5559-P88

>  <fragmenstein_runtime>  (546) 
5.834691286087036

>  <fragmenstein_outcome>  (546) 
too moved

>  <fragmenstein_mode>  (546) 
expansion

>  <fragmenstein_error>  (546) 


$$$$
C5560-P45
     RDKit          3D

 41 43  0  0  0  0  0  0  0  0999 V2000
   -5.2156  -23.8527   28.0644 C   0  0  0  0  0  0  0  0  0  0  0  0
   -6.1340  -23.2844   27.1565 O   0  0  0  0  0  0  0  0  0  0  0  0
   -7.1333  -24.2298   26.8623 C   0  0  0  0  0  0  0  0  0  0  0  0
   -8.2340  -24.1791   27.9497 C   0  0  0  0  0  0  0  0  0  0  0  0
   -9.0602  -25.3790   27.6840 N   0  0  0  0  0  0  0  0  0  0  0  0
   -9.5502  -25.0900   29.0943 C   0  0  0  0  0  0  0  0  0  0  0  0
  -10.7077  -24.1207   29.1130 C   0  0  0  0  0  0  0  0  0  0  0  0
  -11.3547  -23.4395   28.0994 C   0  0  0  0  0  0  0  0  0  0  0  0
  -12.1850  -22.4260   28.5175 N   0  0  0  0  0  0  0  0  0  0  0  0
  -12.2287  -22.4111   29.8250 C   0  0  0  0  0  0  0  0  0  0  0  0
  -11.3682  -23.6294   30.6174 S   0  0  0  0  0  0  0  0  0  0  0  0
   -8.7048  -26.7125   27.5677 C   0  0  0  0  0  0  0  0  0  0  0  0
   -7.6556  -27.2542   27.7396 O   0  0  0  0  0  0  0  0  0  0  0  0
   -9.8297  -27.5144   27.2876 C   0  0  0  0  0  0  0  0  0  0  0  0
  -11.1722  -27.3837   27.5658 C   0  0  0  0  0  0  0  0  0  0  0  0
  -11.7550  -28.6131   27.6234 N   0  0  0  0  0  0  0  0  0  0  0  0
  -10.8001  -29.4344   27.2431 C   0  0  0  0  0  0  0  0  0  0  0  0
  -10.8142  -30.8201   27.0271 C   0  0  0  0  0  0  0  0  0  0  0  0
   -9.9003  -31.3499   26.1864 C   0  0  0  0  0  0  0  0  0  0  0  0
   -8.8624  -30.5624   25.5377 C   0  0  0  0  0  0  0  0  0  0  0  0
   -8.1681  -31.1244   24.3310 C   0  0  0  0  0  0  0  0  0  0  0  0
   -8.6942  -29.3101   25.9795 C   0  0  0  0  0  0  0  0  0  0  0  0
   -9.6780  -28.7712   26.8048 N   0  0  0  0  0  0  0  0  0  0  0  0
   -5.6958  -24.3964   28.8606 H   0  0  0  0  0  0  0  0  0  0  0  0
   -4.4939  -24.4971   27.5638 H   0  0  0  0  0  0  0  0  0  0  0  0
   -4.7655  -23.0283   28.5641 H   0  0  0  0  0  0  0  0  0  0  0  0
   -7.5365  -24.0248   25.8829 H   0  0  0  0  0  0  0  0  0  0  0  0
   -6.6737  -25.2209   26.7723 H   0  0  0  0  0  0  0  0  0  0  0  0
   -7.6341  -24.2069   28.8597 H   0  0  0  0  0  0  0  0  0  0  0  0
   -8.7485  -23.2253   27.8952 H   0  0  0  0  0  0  0  0  0  0  0  0
   -8.8212  -25.0126   29.9159 H   0  0  0  0  0  0  0  0  0  0  0  0
  -10.0249  -26.0250   29.4349 H   0  0  0  0  0  0  0  0  0  0  0  0
  -11.1943  -23.5759   27.0359 H   0  0  0  0  0  0  0  0  0  0  0  0
  -12.8120  -21.7053   30.3855 H   0  0  0  0  0  0  0  0  0  0  0  0
  -11.7226  -26.5082   27.8791 H   0  0  0  0  0  0  0  0  0  0  0  0
  -11.6967  -31.3430   27.3720 H   0  0  0  0  0  0  0  0  0  0  0  0
  -10.0337  -32.3408   25.7939 H   0  0  0  0  0  0  0  0  0  0  0  0
   -7.1527  -30.7324   24.2284 H   0  0  0  0  0  0  0  0  0  0  0  0
   -8.1087  -32.2177   24.3615 H   0  0  0  0  0  0  0  0  0  0  0  0
   -8.7264  -30.8628   23.4254 H   0  0  0  0  0  0  0  0  0  0  0  0
   -7.9242  -28.6510   25.6052 H   0  0  0  0  0  0  0  0  0  0  0  0
  1  2  1  0
  2  3  1  0
  3  4  1  0
  4  5  1  0
  5  6  1  0
  6  7  1  0
  7  8  2  0
  8  9  1  0
  9 10  2  0
 10 11  1  0
  5 12  1  0
 12 13  2  0
 12 14  1  0
 14 15  2  0
 15 16  1  0
 16 17  2  0
 17 18  1  0
 18 19  2  0
 19 20  1  0
 20 21  1  0
 20 22  2  0
 22 23  1  0
 11  7  1  0
 23 14  1  0
 23 17  1  0
  1 24  1  0
  1 25  1  0
  1 26  1  0
  3 27  1  0
  3 28  1  0
  4 29  1  0
  4 30  1  0
  6 31  1  0
  6 32  1  0
  8 33  1  0
 10 34  1  0
 15 35  1  0
 18 36  1  0
 19 37  1  0
 21 38  1  0
 21 39  1  0
 21 40  1  0
 22 41  1  0
M  END
>  <Energy>  (547) 
110.36964261041724

>  <compound_id>  (547) 
5560

>  <target_id>  (547) 
1

>  <reference_id>  (547) 
45

>  <inspiration_ids>  (547) 
[45, 88]

>  <energy_score>  (547) 
27.588664509100283

>  <distance_score>  (547) 
3.939820785777625

>  <path>  (547) 
/opt/xchem-fragalysis-2/maxwin/BulkDock/SCRATCH/511018/C5560-P45/C5560-P45.minimised.mol

>  <scratch_subdir>  (547) 
/opt/xchem-fragalysis-2/maxwin/BulkDock/SCRATCH/511018/C5560-P45

>  <fragmenstein_runtime>  (547) 
10.978417873382568

>  <fragmenstein_outcome>  (547) 
too moved

>  <fragmenstein_mode>  (547) 
expansion

>  <fragmenstein_error>  (547) 


$$$$
C5560-P88
     RDKit          3D

 41 43  0  0  0  0  0  0  0  0999 V2000
   -9.0254  -27.9000   23.7892 C   0  0  0  0  0  0  0  0  0  0  0  0
   -9.3626  -26.5694   25.1389 O   0  0  0  0  0  0  0  0  0  0  0  0
  -10.5836  -25.7924   25.6362 C   0  0  0  0  0  0  0  0  0  0  0  0
  -10.5321  -25.6412   27.1896 C   0  0  0  0  0  0  0  0  0  0  0  0
  -11.6102  -26.3808   27.8696 N   0  0  0  0  0  0  0  0  0  0  0  0
  -12.3633  -25.0262   27.6663 C   0  0  0  0  0  0  0  0  0  0  0  0
  -11.9346  -23.7785   28.4401 C   0  0  0  0  0  0  0  0  0  0  0  0
  -11.5837  -22.5404   27.9263 C   0  0  0  0  0  0  0  0  0  0  0  0
  -11.2573  -21.5687   28.8514 N   0  0  0  0  0  0  0  0  0  0  0  0
  -11.3448  -22.0644   30.0608 C   0  0  0  0  0  0  0  0  0  0  0  0
  -11.7840  -23.7033   30.1426 S   0  0  0  0  0  0  0  0  0  0  0  0
  -11.7343  -26.8065   29.2032 C   0  0  0  0  0  0  0  0  0  0  0  0
  -11.0407  -26.6012   30.1534 O   0  0  0  0  0  0  0  0  0  0  0  0
  -12.8488  -27.6807   29.2610 C   0  0  0  0  0  0  0  0  0  0  0  0
  -14.1597  -27.5135   29.6152 C   0  0  0  0  0  0  0  0  0  0  0  0
  -14.8872  -28.6288   29.2890 N   0  0  0  0  0  0  0  0  0  0  0  0
  -14.0217  -29.4846   28.7842 C   0  0  0  0  0  0  0  0  0  0  0  0
  -14.1859  -30.7883   28.2437 C   0  0  0  0  0  0  0  0  0  0  0  0
  -13.1171  -31.4759   27.7964 C   0  0  0  0  0  0  0  0  0  0  0  0
  -11.7671  -30.9286   27.8591 C   0  0  0  0  0  0  0  0  0  0  0  0
  -10.6523  -31.7773   27.3375 C   0  0  0  0  0  0  0  0  0  0  0  0
  -11.6132  -29.6932   28.3713 C   0  0  0  0  0  0  0  0  0  0  0  0
  -12.7360  -28.9766   28.8049 N   0  0  0  0  0  0  0  0  0  0  0  0
   -9.7781  -27.5450   23.1131 H   0  0  0  0  0  0  0  0  0  0  0  0
   -8.7852  -28.8661   24.2958 H   0  0  0  0  0  0  0  0  0  0  0  0
   -8.0385  -27.9716   23.3052 H   0  0  0  0  0  0  0  0  0  0  0  0
  -10.4916  -24.7676   25.2651 H   0  0  0  0  0  0  0  0  0  0  0  0
  -11.5222  -26.2305   25.2839 H   0  0  0  0  0  0  0  0  0  0  0  0
   -9.6789  -26.2720   27.4757 H   0  0  0  0  0  0  0  0  0  0  0  0
  -10.1260  -24.7012   27.5760 H   0  0  0  0  0  0  0  0  0  0  0  0
  -13.3799  -25.2323   28.0366 H   0  0  0  0  0  0  0  0  0  0  0  0
  -12.5578  -24.8000   26.6067 H   0  0  0  0  0  0  0  0  0  0  0  0
  -11.5671  -22.2778   26.8744 H   0  0  0  0  0  0  0  0  0  0  0  0
  -11.1456  -21.4754   30.9468 H   0  0  0  0  0  0  0  0  0  0  0  0
  -14.6404  -26.6378   30.0278 H   0  0  0  0  0  0  0  0  0  0  0  0
  -15.1846  -31.2093   28.2108 H   0  0  0  0  0  0  0  0  0  0  0  0
  -13.2493  -32.4775   27.3952 H   0  0  0  0  0  0  0  0  0  0  0  0
  -10.5080  -32.6585   27.9702 H   0  0  0  0  0  0  0  0  0  0  0  0
  -10.8701  -32.1211   26.3206 H   0  0  0  0  0  0  0  0  0  0  0  0
   -9.7116  -31.2197   27.2969 H   0  0  0  0  0  0  0  0  0  0  0  0
  -10.6459  -29.2161   28.4747 H   0  0  0  0  0  0  0  0  0  0  0  0
  1  2  1  0
  2  3  1  0
  3  4  1  0
  4  5  1  0
  5  6  1  0
  6  7  1  0
  7  8  2  0
  8  9  1  0
  9 10  2  0
 10 11  1  0
  5 12  1  0
 12 13  2  0
 12 14  1  0
 14 15  2  0
 15 16  1  0
 16 17  2  0
 17 18  1  0
 18 19  2  0
 19 20  1  0
 20 21  1  0
 20 22  2  0
 22 23  1  0
 11  7  1  0
 23 14  1  0
 23 17  1  0
  1 24  1  0
  1 25  1  0
  1 26  1  0
  3 27  1  0
  3 28  1  0
  4 29  1  0
  4 30  1  0
  6 31  1  0
  6 32  1  0
  8 33  1  0
 10 34  1  0
 15 35  1  0
 18 36  1  0
 19 37  1  0
 21 38  1  0
 21 39  1  0
 21 40  1  0
 22 41  1  0
M  END
>  <Energy>  (548) 
211.18314660494255

>  <compound_id>  (548) 
5560

>  <target_id>  (548) 
1

>  <reference_id>  (548) 
88

>  <inspiration_ids>  (548) 
[45, 88]

>  <energy_score>  (548) 
128.40216850363214

>  <distance_score>  (548) 
5.397049538171725

>  <path>  (548) 
/opt/xchem-fragalysis-2/maxwin/BulkDock/SCRATCH/511018/C5560-P88/C5560-P88.minimised.mol

>  <scratch_subdir>  (548) 
/opt/xchem-fragalysis-2/maxwin/BulkDock/SCRATCH/511018/C5560-P88

>  <fragmenstein_runtime>  (548) 
10.025319337844849

>  <fragmenstein_outcome>  (548) 
too moved

>  <fragmenstein_mode>  (548) 
expansion

>  <fragmenstein_error>  (548) 


$$$$
C5561-P45
     RDKit          3D

 41 43  0  0  0  0  0  0  0  0999 V2000
  -13.5042  -27.6517   27.9866 C   0  0  0  0  0  0  0  0  0  0  0  0
  -13.7675  -26.6522   27.0028 O   0  0  0  0  0  0  0  0  0  0  0  0
  -13.0514  -26.8499   25.7797 C   0  0  0  0  0  0  0  0  0  0  0  0
  -11.5423  -26.6482   25.9008 C   0  0  0  0  0  0  0  0  0  0  0  0
  -11.0138  -25.3406   26.3004 N   0  0  0  0  0  0  0  0  0  0  0  0
  -11.8431  -24.1918   26.5335 C   0  0  0  0  0  0  0  0  0  0  0  0
  -11.7307  -23.5911   27.8700 C   0  0  0  0  0  0  0  0  0  0  0  0
  -11.3865  -22.2940   28.1423 C   0  0  0  0  0  0  0  0  0  0  0  0
  -11.3857  -21.8971   29.4507 N   0  0  0  0  0  0  0  0  0  0  0  0
  -11.7572  -22.9134   30.1814 C   0  0  0  0  0  0  0  0  0  0  0  0
  -12.1222  -24.3482   29.3216 S   0  0  0  0  0  0  0  0  0  0  0  0
   -9.6483  -25.2201   26.4541 C   0  0  0  0  0  0  0  0  0  0  0  0
   -8.9682  -24.8907   25.4926 O   0  0  0  0  0  0  0  0  0  0  0  0
   -9.0087  -25.5875   27.7001 C   0  0  0  0  0  0  0  0  0  0  0  0
   -9.5332  -26.2096   28.8327 C   0  0  0  0  0  0  0  0  0  0  0  0
   -9.4457  -25.8045   30.2661 C   0  0  0  0  0  0  0  0  0  0  0  0
   -9.6253  -27.5546   28.5304 N   0  0  0  0  0  0  0  0  0  0  0  0
   -8.6780  -27.7283   27.6221 C   0  0  0  0  0  0  0  0  0  0  0  0
   -8.1758  -28.8376   26.9005 C   0  0  0  0  0  0  0  0  0  0  0  0
   -6.9379  -28.7518   26.3806 C   0  0  0  0  0  0  0  0  0  0  0  0
   -6.1200  -27.5546   26.5214 C   0  0  0  0  0  0  0  0  0  0  0  0
   -6.7127  -26.4266   26.9489 C   0  0  0  0  0  0  0  0  0  0  0  0
   -8.0004  -26.5221   27.4572 N   0  0  0  0  0  0  0  0  0  0  0  0
  -14.1963  -27.4963   28.8189 H   0  0  0  0  0  0  0  0  0  0  0  0
  -13.6704  -28.6521   27.5763 H   0  0  0  0  0  0  0  0  0  0  0  0
  -12.4865  -27.5624   28.3716 H   0  0  0  0  0  0  0  0  0  0  0  0
  -13.4627  -26.1543   25.0404 H   0  0  0  0  0  0  0  0  0  0  0  0
  -13.2704  -27.8553   25.4101 H   0  0  0  0  0  0  0  0  0  0  0  0
  -11.0949  -26.8912   24.9386 H   0  0  0  0  0  0  0  0  0  0  0  0
  -11.1501  -27.3939   26.5908 H   0  0  0  0  0  0  0  0  0  0  0  0
  -11.5231  -23.4559   25.7904 H   0  0  0  0  0  0  0  0  0  0  0  0
  -12.8579  -24.3899   26.2355 H   0  0  0  0  0  0  0  0  0  0  0  0
  -11.1481  -21.6020   27.3602 H   0  0  0  0  0  0  0  0  0  0  0  0
  -11.7879  -22.8368   31.2584 H   0  0  0  0  0  0  0  0  0  0  0  0
  -10.1732  -25.0930   30.6116 H   0  0  0  0  0  0  0  0  0  0  0  0
   -9.5279  -26.6779   30.9218 H   0  0  0  0  0  0  0  0  0  0  0  0
   -8.5009  -25.2982   30.4565 H   0  0  0  0  0  0  0  0  0  0  0  0
   -8.7708  -29.7370   26.7983 H   0  0  0  0  0  0  0  0  0  0  0  0
   -6.5361  -29.5703   25.7943 H   0  0  0  0  0  0  0  0  0  0  0  0
   -5.1034  -27.5625   26.1414 H   0  0  0  0  0  0  0  0  0  0  0  0
   -6.2436  -25.4516   26.9267 H   0  0  0  0  0  0  0  0  0  0  0  0
  1  2  1  0
  2  3  1  0
  3  4  1  0
  4  5  1  0
  5  6  1  0
  6  7  1  0
  7  8  2  0
  8  9  1  0
  9 10  2  0
 10 11  1  0
  5 12  1  0
 12 13  2  0
 12 14  1  0
 14 15  2  0
 15 16  1  0
 15 17  1  0
 17 18  2  0
 18 19  1  0
 19 20  2  0
 20 21  1  0
 21 22  2  0
 22 23  1  0
 11  7  1  0
 23 14  1  0
 23 18  1  0
  1 24  1  0
  1 25  1  0
  1 26  1  0
  3 27  1  0
  3 28  1  0
  4 29  1  0
  4 30  1  0
  6 31  1  0
  6 32  1  0
  8 33  1  0
 10 34  1  0
 16 35  1  0
 16 36  1  0
 16 37  1  0
 19 38  1  0
 20 39  1  0
 21 40  1  0
 22 41  1  0
M  END
>  <Energy>  (549) 
106.67543751880945

>  <compound_id>  (549) 
5561

>  <target_id>  (549) 
1

>  <reference_id>  (549) 
45

>  <inspiration_ids>  (549) 
[45, 88]

>  <energy_score>  (549) 
-40.90614574218358

>  <distance_score>  (549) 
1.9023649982787472

>  <path>  (549) 
/opt/xchem-fragalysis-2/maxwin/BulkDock/SCRATCH/511018/C5561-P45/C5561-P45.minimised.mol

>  <scratch_subdir>  (549) 
/opt/xchem-fragalysis-2/maxwin/BulkDock/SCRATCH/511018/C5561-P45

>  <fragmenstein_runtime>  (549) 
5.563269853591919

>  <fragmenstein_outcome>  (549) 
too moved

>  <fragmenstein_mode>  (549) 
expansion

>  <fragmenstein_error>  (549) 


$$$$
C5561-P88
     RDKit          3D

 41 43  0  0  0  0  0  0  0  0999 V2000
  -14.9215  -27.7883   27.3393 C   0  0  0  0  0  0  0  0  0  0  0  0
  -14.9882  -26.7677   26.3519 O   0  0  0  0  0  0  0  0  0  0  0  0
  -13.7303  -26.1355   26.1118 C   0  0  0  0  0  0  0  0  0  0  0  0
  -13.3638  -25.1273   27.2054 C   0  0  0  0  0  0  0  0  0  0  0  0
  -12.1374  -24.3816   26.9273 N   0  0  0  0  0  0  0  0  0  0  0  0
  -12.1116  -22.9494   26.9846 C   0  0  0  0  0  0  0  0  0  0  0  0
  -11.8294  -22.4621   28.3687 C   0  0  0  0  0  0  0  0  0  0  0  0
  -11.1340  -21.3317   28.7393 C   0  0  0  0  0  0  0  0  0  0  0  0
  -11.1149  -21.0384   30.0883 N   0  0  0  0  0  0  0  0  0  0  0  0
  -11.7819  -21.9547   30.7475 C   0  0  0  0  0  0  0  0  0  0  0  0
  -12.4761  -23.1741   29.7868 S   0  0  0  0  0  0  0  0  0  0  0  0
  -10.9727  -25.0104   26.6036 C   0  0  0  0  0  0  0  0  0  0  0  0
  -10.7017  -25.2504   25.4433 O   0  0  0  0  0  0  0  0  0  0  0  0
  -10.1398  -25.4685   27.6631 C   0  0  0  0  0  0  0  0  0  0  0  0
  -10.2619  -25.2693   29.0195 C   0  0  0  0  0  0  0  0  0  0  0  0
   -9.4925  -24.3864   29.9249 C   0  0  0  0  0  0  0  0  0  0  0  0
  -11.0307  -26.3225   29.4847 N   0  0  0  0  0  0  0  0  0  0  0  0
  -10.8250  -27.2865   28.5893 C   0  0  0  0  0  0  0  0  0  0  0  0
  -10.9793  -28.7018   28.6884 C   0  0  0  0  0  0  0  0  0  0  0  0
  -10.0190  -29.5147   28.1897 C   0  0  0  0  0  0  0  0  0  0  0  0
   -8.8180  -28.9968   27.5293 C   0  0  0  0  0  0  0  0  0  0  0  0
   -8.7231  -27.6632   27.2775 C   0  0  0  0  0  0  0  0  0  0  0  0
   -9.8343  -26.8079   27.6796 N   0  0  0  0  0  0  0  0  0  0  0  0
  -14.1857  -28.5485   27.0590 H   0  0  0  0  0  0  0  0  0  0  0  0
  -14.6788  -27.3710   28.3201 H   0  0  0  0  0  0  0  0  0  0  0  0
  -15.9036  -28.2646   27.4036 H   0  0  0  0  0  0  0  0  0  0  0  0
  -13.8271  -25.6045   25.1609 H   0  0  0  0  0  0  0  0  0  0  0  0
  -12.9542  -26.8950   25.9768 H   0  0  0  0  0  0  0  0  0  0  0  0
  -13.2437  -25.6451   28.1599 H   0  0  0  0  0  0  0  0  0  0  0  0
  -14.1967  -24.4265   27.3365 H   0  0  0  0  0  0  0  0  0  0  0  0
  -11.3250  -22.5910   26.3122 H   0  0  0  0  0  0  0  0  0  0  0  0
  -13.0628  -22.6007   26.5825 H   0  0  0  0  0  0  0  0  0  0  0  0
  -10.6499  -20.6511   28.0540 H   0  0  0  0  0  0  0  0  0  0  0  0
  -11.9051  -21.9290   31.8237 H   0  0  0  0  0  0  0  0  0  0  0  0
   -9.9213  -24.3655   30.9302 H   0  0  0  0  0  0  0  0  0  0  0  0
   -8.4749  -24.7606   30.0097 H   0  0  0  0  0  0  0  0  0  0  0  0
   -9.4073  -23.3720   29.5361 H   0  0  0  0  0  0  0  0  0  0  0  0
  -11.8423  -29.0973   29.2113 H   0  0  0  0  0  0  0  0  0  0  0  0
  -10.1271  -30.5930   28.2421 H   0  0  0  0  0  0  0  0  0  0  0  0
   -8.1044  -29.7207   27.1746 H   0  0  0  0  0  0  0  0  0  0  0  0
   -7.8628  -27.2336   26.8169 H   0  0  0  0  0  0  0  0  0  0  0  0
  1  2  1  0
  2  3  1  0
  3  4  1  0
  4  5  1  0
  5  6  1  0
  6  7  1  0
  7  8  2  0
  8  9  1  0
  9 10  2  0
 10 11  1  0
  5 12  1  0
 12 13  2  0
 12 14  1  0
 14 15  2  0
 15 16  1  0
 15 17  1  0
 17 18  2  0
 18 19  1  0
 19 20  2  0
 20 21  1  0
 21 22  2  0
 22 23  1  0
 11  7  1  0
 23 14  1  0
 23 18  1  0
  1 24  1  0
  1 25  1  0
  1 26  1  0
  3 27  1  0
  3 28  1  0
  4 29  1  0
  4 30  1  0
  6 31  1  0
  6 32  1  0
  8 33  1  0
 10 34  1  0
 16 35  1  0
 16 36  1  0
 16 37  1  0
 19 38  1  0
 20 39  1  0
 21 40  1  0
 22 41  1  0
M  END
>  <Energy>  (550) 
100.45170171711382

>  <compound_id>  (550) 
5561

>  <target_id>  (550) 
1

>  <reference_id>  (550) 
88

>  <inspiration_ids>  (550) 
[45, 88]

>  <energy_score>  (550) 
5.007261720873629

>  <distance_score>  (550) 
3.030777213485847

>  <path>  (550) 
/opt/xchem-fragalysis-2/maxwin/BulkDock/SCRATCH/511018/C5561-P88/C5561-P88.minimised.mol

>  <scratch_subdir>  (550) 
/opt/xchem-fragalysis-2/maxwin/BulkDock/SCRATCH/511018/C5561-P88

>  <fragmenstein_runtime>  (550) 
8.361987829208374

>  <fragmenstein_outcome>  (550) 
too moved

>  <fragmenstein_mode>  (550) 
expansion

>  <fragmenstein_error>  (550) 


$$$$
C5562-P45
     RDKit          3D

 38 40  0  0  0  0  0  0  0  0999 V2000
  -15.4829  -26.8012   29.1351 C   0  0  0  0  0  0  0  0  0  0  0  0
  -14.5023  -27.0089   28.1103 O   0  0  0  0  0  0  0  0  0  0  0  0
  -13.5036  -27.9280   28.5739 C   0  0  0  0  0  0  0  0  0  0  0  0
  -12.6089  -28.3569   27.3986 C   0  0  0  0  0  0  0  0  0  0  0  0
  -11.2040  -27.8624   27.1940 N   0  0  0  0  0  0  0  0  0  0  0  0
  -11.9535  -26.6453   26.6100 C   0  0  0  0  0  0  0  0  0  0  0  0
  -11.8043  -25.2694   27.2496 C   0  0  0  0  0  0  0  0  0  0  0  0
  -11.5839  -24.0770   26.5789 C   0  0  0  0  0  0  0  0  0  0  0  0
  -11.4798  -22.9441   27.3604 N   0  0  0  0  0  0  0  0  0  0  0  0
  -11.7005  -23.2440   28.6141 C   0  0  0  0  0  0  0  0  0  0  0  0
  -11.9888  -24.8940   28.9159 S   0  0  0  0  0  0  0  0  0  0  0  0
  -10.2284  -27.4342   28.1264 C   0  0  0  0  0  0  0  0  0  0  0  0
  -10.3024  -27.2694   29.3134 O   0  0  0  0  0  0  0  0  0  0  0  0
   -8.9568  -27.2864   27.4662 C   0  0  0  0  0  0  0  0  0  0  0  0
   -8.2275  -28.2677   26.8235 C   0  0  0  0  0  0  0  0  0  0  0  0
   -6.9561  -27.8502   26.5656 N   0  0  0  0  0  0  0  0  0  0  0  0
   -6.9132  -26.5926   26.9472 C   0  0  0  0  0  0  0  0  0  0  0  0
   -5.8567  -25.6406   26.9951 C   0  0  0  0  0  0  0  0  0  0  0  0
   -4.2642  -26.1806   26.7732 Cl  0  0  0  0  0  0  0  0  0  0  0  0
   -6.0842  -24.3749   27.3810 C   0  0  0  0  0  0  0  0  0  0  0  0
   -7.3966  -23.9542   27.7949 C   0  0  0  0  0  0  0  0  0  0  0  0
   -8.3634  -24.8760   27.8852 C   0  0  0  0  0  0  0  0  0  0  0  0
   -8.1350  -26.1812   27.4627 N   0  0  0  0  0  0  0  0  0  0  0  0
  -15.9606  -27.7484   29.4047 H   0  0  0  0  0  0  0  0  0  0  0  0
  -15.0234  -26.3473   30.0166 H   0  0  0  0  0  0  0  0  0  0  0  0
  -16.2545  -26.1325   28.7465 H   0  0  0  0  0  0  0  0  0  0  0  0
  -12.9366  -27.5131   29.4078 H   0  0  0  0  0  0  0  0  0  0  0  0
  -14.0197  -28.8244   28.9425 H   0  0  0  0  0  0  0  0  0  0  0  0
  -13.1612  -28.5570   26.4641 H   0  0  0  0  0  0  0  0  0  0  0  0
  -12.3526  -29.3884   27.6962 H   0  0  0  0  0  0  0  0  0  0  0  0
  -11.3555  -26.5323   25.6856 H   0  0  0  0  0  0  0  0  0  0  0  0
  -12.9504  -26.7279   26.1413 H   0  0  0  0  0  0  0  0  0  0  0  0
  -11.4748  -23.9761   25.5047 H   0  0  0  0  0  0  0  0  0  0  0  0
  -11.7004  -22.4956   29.3962 H   0  0  0  0  0  0  0  0  0  0  0  0
   -8.5271  -29.2885   26.6142 H   0  0  0  0  0  0  0  0  0  0  0  0
   -5.2703  -23.6701   27.5103 H   0  0  0  0  0  0  0  0  0  0  0  0
   -7.5462  -22.9235   28.0895 H   0  0  0  0  0  0  0  0  0  0  0  0
   -9.3288  -24.6315   28.2781 H   0  0  0  0  0  0  0  0  0  0  0  0
  1  2  1  0
  2  3  1  0
  3  4  1  0
  4  5  1  0
  5  6  1  0
  6  7  1  0
  7  8  2  0
  8  9  1  0
  9 10  2  0
 10 11  1  0
  5 12  1  0
 12 13  2  0
 12 14  1  0
 14 15  2  0
 15 16  1  0
 16 17  2  0
 17 18  1  0
 18 19  1  0
 18 20  2  0
 20 21  1  0
 21 22  2  0
 22 23  1  0
 11  7  1  0
 23 14  1  0
 23 17  1  0
  1 24  1  0
  1 25  1  0
  1 26  1  0
  3 27  1  0
  3 28  1  0
  4 29  1  0
  4 30  1  0
  6 31  1  0
  6 32  1  0
  8 33  1  0
 10 34  1  0
 15 35  1  0
 20 36  1  0
 21 37  1  0
 22 38  1  0
M  END
>  <Energy>  (551) 
112.50897885377377

>  <compound_id>  (551) 
5562

>  <target_id>  (551) 
1

>  <reference_id>  (551) 
45

>  <inspiration_ids>  (551) 
[45, 88]

>  <energy_score>  (551) 
-2.0900413967272016

>  <distance_score>  (551) 
3.2539882930849617

>  <path>  (551) 
/opt/xchem-fragalysis-2/maxwin/BulkDock/SCRATCH/511018/C5562-P45/C5562-P45.minimised.mol

>  <scratch_subdir>  (551) 
/opt/xchem-fragalysis-2/maxwin/BulkDock/SCRATCH/511018/C5562-P45

>  <fragmenstein_runtime>  (551) 
7.852997779846191

>  <fragmenstein_outcome>  (551) 
too moved

>  <fragmenstein_mode>  (551) 
expansion

>  <fragmenstein_error>  (551) 


$$$$
C5562-P88
     RDKit          3D

 38 40  0  0  0  0  0  0  0  0999 V2000
  -18.4027  -27.0752   28.5265 C   0  0  0  0  0  0  0  0  0  0  0  0
  -17.1788  -26.6129   27.9697 O   0  0  0  0  0  0  0  0  0  0  0  0
  -16.3523  -25.9869   28.9569 C   0  0  0  0  0  0  0  0  0  0  0  0
  -14.9858  -25.6071   28.3125 C   0  0  0  0  0  0  0  0  0  0  0  0
  -14.2920  -26.9289   28.1128 N   0  0  0  0  0  0  0  0  0  0  0  0
  -13.2912  -26.0344   27.3307 C   0  0  0  0  0  0  0  0  0  0  0  0
  -12.3911  -24.9988   27.9915 C   0  0  0  0  0  0  0  0  0  0  0  0
  -12.1541  -23.7001   27.5664 C   0  0  0  0  0  0  0  0  0  0  0  0
  -11.2969  -22.9521   28.3483 N   0  0  0  0  0  0  0  0  0  0  0  0
  -10.8463  -23.6865   29.3360 C   0  0  0  0  0  0  0  0  0  0  0  0
  -11.3969  -25.3019   29.3593 S   0  0  0  0  0  0  0  0  0  0  0  0
  -13.5940  -27.7564   29.0282 C   0  0  0  0  0  0  0  0  0  0  0  0
  -13.2980  -27.5737   30.1766 O   0  0  0  0  0  0  0  0  0  0  0  0
  -13.3363  -29.0180   28.3834 C   0  0  0  0  0  0  0  0  0  0  0  0
  -14.2582  -29.8196   27.7438 C   0  0  0  0  0  0  0  0  0  0  0  0
  -13.6807  -30.9365   27.2194 N   0  0  0  0  0  0  0  0  0  0  0  0
  -12.4049  -30.8471   27.5286 C   0  0  0  0  0  0  0  0  0  0  0  0
  -11.2910  -31.6523   27.1531 C   0  0  0  0  0  0  0  0  0  0  0  0
  -11.5697  -33.1404   26.3353 Cl  0  0  0  0  0  0  0  0  0  0  0  0
  -10.0453  -31.1815   27.3278 C   0  0  0  0  0  0  0  0  0  0  0  0
   -9.8062  -29.9163   28.0011 C   0  0  0  0  0  0  0  0  0  0  0  0
  -10.8502  -29.2282   28.4950 C   0  0  0  0  0  0  0  0  0  0  0  0
  -12.1371  -29.6686   28.2237 N   0  0  0  0  0  0  0  0  0  0  0  0
  -18.2118  -27.8342   29.2912 H   0  0  0  0  0  0  0  0  0  0  0  0
  -18.9957  -27.5269   27.7269 H   0  0  0  0  0  0  0  0  0  0  0  0
  -18.9678  -26.2416   28.9543 H   0  0  0  0  0  0  0  0  0  0  0  0
  -16.8630  -25.0938   29.3163 H   0  0  0  0  0  0  0  0  0  0  0  0
  -16.2048  -26.6661   29.8055 H   0  0  0  0  0  0  0  0  0  0  0  0
  -15.2637  -25.0676   27.3944 H   0  0  0  0  0  0  0  0  0  0  0  0
  -14.5006  -24.9863   29.0706 H   0  0  0  0  0  0  0  0  0  0  0  0
  -12.5724  -26.7690   26.9333 H   0  0  0  0  0  0  0  0  0  0  0  0
  -13.7373  -25.6608   26.3924 H   0  0  0  0  0  0  0  0  0  0  0  0
  -12.5976  -23.2275   26.6951 H   0  0  0  0  0  0  0  0  0  0  0  0
  -10.1608  -23.2999   30.0794 H   0  0  0  0  0  0  0  0  0  0  0  0
  -15.3217  -29.6363   27.6403 H   0  0  0  0  0  0  0  0  0  0  0  0
   -9.1845  -31.7323   26.9579 H   0  0  0  0  0  0  0  0  0  0  0  0
   -8.7874  -29.5536   28.0802 H   0  0  0  0  0  0  0  0  0  0  0  0
  -10.7569  -28.2940   29.0260 H   0  0  0  0  0  0  0  0  0  0  0  0
  1  2  1  0
  2  3  1  0
  3  4  1  0
  4  5  1  0
  5  6  1  0
  6  7  1  0
  7  8  2  0
  8  9  1  0
  9 10  2  0
 10 11  1  0
  5 12  1  0
 12 13  2  0
 12 14  1  0
 14 15  2  0
 15 16  1  0
 16 17  2  0
 17 18  1  0
 18 19  1  0
 18 20  2  0
 20 21  1  0
 21 22  2  0
 22 23  1  0
 11  7  1  0
 23 14  1  0
 23 17  1  0
  1 24  1  0
  1 25  1  0
  1 26  1  0
  3 27  1  0
  3 28  1  0
  4 29  1  0
  4 30  1  0
  6 31  1  0
  6 32  1  0
  8 33  1  0
 10 34  1  0
 15 35  1  0
 20 36  1  0
 21 37  1  0
 22 38  1  0
M  END
>  <Energy>  (552) 
96.691915072704035

>  <compound_id>  (552) 
5562

>  <target_id>  (552) 
1

>  <reference_id>  (552) 
88

>  <inspiration_ids>  (552) 
[45, 88]

>  <energy_score>  (552) 
-17.90710517778848

>  <distance_score>  (552) 
5.048374674452214

>  <path>  (552) 
/opt/xchem-fragalysis-2/maxwin/BulkDock/SCRATCH/511018/C5562-P88/C5562-P88.minimised.mol

>  <scratch_subdir>  (552) 
/opt/xchem-fragalysis-2/maxwin/BulkDock/SCRATCH/511018/C5562-P88

>  <fragmenstein_runtime>  (552) 
8.673565149307251

>  <fragmenstein_outcome>  (552) 
too moved

>  <fragmenstein_mode>  (552) 
expansion

>  <fragmenstein_error>  (552) 


$$$$
C5566-P45
     RDKit          3D

 28 30  0  0  0  0  0  0  0  0999 V2000
  -11.4737  -26.4633   27.4143 O   0  0  0  0  0  0  0  0  0  0  0  0
  -10.5934  -26.0243   28.0301 C   0  0  0  0  0  0  0  0  0  0  0  0
   -9.0859  -26.2614   27.9148 N   0  0  0  0  0  0  0  0  0  0  0  0
   -8.3484  -27.1570   27.0831 C   0  0  0  0  0  0  0  0  0  0  0  0
   -7.0374  -26.4455   26.9424 C   0  0  0  0  0  0  0  0  0  0  0  0
   -6.9066  -25.1427   27.1657 N   0  0  0  0  0  0  0  0  0  0  0  0
   -5.5765  -24.8089   27.2167 C   0  0  0  0  0  0  0  0  0  0  0  0
   -4.7060  -25.8520   27.0027 C   0  0  0  0  0  0  0  0  0  0  0  0
   -5.5715  -27.3153   26.7743 S   0  0  0  0  0  0  0  0  0  0  0  0
  -10.7087  -25.1388   29.2254 C   0  0  0  0  0  0  0  0  0  0  0  0
   -9.9983  -25.5323   30.4506 C   0  0  0  0  0  0  0  0  0  0  0  0
  -10.0231  -24.7837   31.5663 C   0  0  0  0  0  0  0  0  0  0  0  0
   -9.1747  -25.2523   33.1310 Br  0  0  0  0  0  0  0  0  0  0  0  0
  -10.8362  -23.6154   31.5810 C   0  0  0  0  0  0  0  0  0  0  0  0
  -11.1181  -22.7784   32.5519 N   0  0  0  0  0  0  0  0  0  0  0  0
  -11.8333  -21.7798   31.9813 C   0  0  0  0  0  0  0  0  0  0  0  0
  -12.0044  -22.0144   30.6385 C   0  0  0  0  0  0  0  0  0  0  0  0
  -11.4336  -23.2294   30.3804 N   0  0  0  0  0  0  0  0  0  0  0  0
  -11.3897  -23.9791   29.2044 C   0  0  0  0  0  0  0  0  0  0  0  0
   -8.5965  -25.6505   28.5608 H   0  0  0  0  0  0  0  0  0  0  0  0
   -8.2454  -28.0975   27.6271 H   0  0  0  0  0  0  0  0  0  0  0  0
   -8.8950  -27.3538   26.1733 H   0  0  0  0  0  0  0  0  0  0  0  0
   -5.2926  -23.7870   27.4287 H   0  0  0  0  0  0  0  0  0  0  0  0
   -3.6258  -25.8449   26.9811 H   0  0  0  0  0  0  0  0  0  0  0  0
   -9.5033  -26.4976   30.4714 H   0  0  0  0  0  0  0  0  0  0  0  0
  -12.1736  -20.9535   32.5873 H   0  0  0  0  0  0  0  0  0  0  0  0
  -12.4846  -21.4669   29.8466 H   0  0  0  0  0  0  0  0  0  0  0  0
  -11.9133  -23.5976   28.3360 H   0  0  0  0  0  0  0  0  0  0  0  0
  1  2  2  0
  2  3  1  0
  3  4  1  0
  4  5  1  0
  5  6  2  0
  6  7  1  0
  7  8  2  0
  8  9  1  0
  2 10  1  0
 10 11  1  0
 11 12  2  0
 12 13  1  0
 12 14  1  0
 14 15  2  0
 15 16  1  0
 16 17  2  0
 17 18  1  0
 18 19  1  0
  9  5  1  0
 19 10  2  0
 18 14  1  0
  3 20  1  0
  4 21  1  0
  4 22  1  0
  7 23  1  0
  8 24  1  0
 11 25  1  0
 16 26  1  0
 17 27  1  0
 19 28  1  0
M  END
>  <Energy>  (553) 
39.38517682789567

>  <compound_id>  (553) 
5566

>  <target_id>  (553) 
1

>  <reference_id>  (553) 
45

>  <inspiration_ids>  (553) 
[45, 88]

>  <energy_score>  (553) 
-18.63669617534873

>  <distance_score>  (553) 
1.7072372138892364

>  <path>  (553) 
/opt/xchem-fragalysis-2/maxwin/BulkDock/SCRATCH/511018/C5566-P45/C5566-P45.minimised.mol

>  <scratch_subdir>  (553) 
/opt/xchem-fragalysis-2/maxwin/BulkDock/SCRATCH/511018/C5566-P45

>  <fragmenstein_runtime>  (553) 
7.901223421096802

>  <fragmenstein_outcome>  (553) 
too moved

>  <fragmenstein_mode>  (553) 
expansion

>  <fragmenstein_error>  (553) 


$$$$
C5566-P88
     RDKit          3D

 28 30  0  0  0  0  0  0  0  0999 V2000
  -10.5916  -23.2156   27.4019 O   0  0  0  0  0  0  0  0  0  0  0  0
  -10.8551  -23.7010   28.4209 C   0  0  0  0  0  0  0  0  0  0  0  0
  -11.4676  -25.0713   28.7418 N   0  0  0  0  0  0  0  0  0  0  0  0
  -11.7909  -26.1522   27.8933 C   0  0  0  0  0  0  0  0  0  0  0  0
  -10.5466  -26.9818   27.9009 C   0  0  0  0  0  0  0  0  0  0  0  0
   -9.3825  -26.6539   27.3415 N   0  0  0  0  0  0  0  0  0  0  0  0
   -8.4968  -27.7611   27.2449 C   0  0  0  0  0  0  0  0  0  0  0  0
   -8.9990  -28.9505   27.7482 C   0  0  0  0  0  0  0  0  0  0  0  0
  -10.6161  -28.6850   28.3972 S   0  0  0  0  0  0  0  0  0  0  0  0
  -10.5651  -23.1380   29.7484 C   0  0  0  0  0  0  0  0  0  0  0  0
   -9.6712  -23.8822   30.6333 C   0  0  0  0  0  0  0  0  0  0  0  0
   -9.6377  -23.6299   31.9506 C   0  0  0  0  0  0  0  0  0  0  0  0
   -8.6890  -24.6576   33.1746 Br  0  0  0  0  0  0  0  0  0  0  0  0
  -10.4192  -22.5643   32.4618 C   0  0  0  0  0  0  0  0  0  0  0  0
  -10.5520  -22.1224   33.6914 N   0  0  0  0  0  0  0  0  0  0  0  0
  -11.4618  -21.1092   33.6167 C   0  0  0  0  0  0  0  0  0  0  0  0
  -11.8637  -20.9043   32.3201 C   0  0  0  0  0  0  0  0  0  0  0  0
  -11.2080  -21.8413   31.5704 N   0  0  0  0  0  0  0  0  0  0  0  0
  -11.3050  -22.1253   30.2144 C   0  0  0  0  0  0  0  0  0  0  0  0
  -11.4868  -25.2064   29.7435 H   0  0  0  0  0  0  0  0  0  0  0  0
  -12.6629  -26.6736   28.2950 H   0  0  0  0  0  0  0  0  0  0  0  0
  -11.9991  -25.7791   26.8869 H   0  0  0  0  0  0  0  0  0  0  0  0
   -7.5211  -27.6597   26.7967 H   0  0  0  0  0  0  0  0  0  0  0  0
   -8.5574  -29.9311   27.7230 H   0  0  0  0  0  0  0  0  0  0  0  0
   -9.0752  -24.6799   30.1980 H   0  0  0  0  0  0  0  0  0  0  0  0
  -11.7897  -20.5830   34.5056 H   0  0  0  0  0  0  0  0  0  0  0  0
  -12.5819  -20.2212   31.8951 H   0  0  0  0  0  0  0  0  0  0  0  0
  -12.0138  -21.5638   29.6225 H   0  0  0  0  0  0  0  0  0  0  0  0
  1  2  2  0
  2  3  1  0
  3  4  1  0
  4  5  1  0
  5  6  2  0
  6  7  1  0
  7  8  2  0
  8  9  1  0
  2 10  1  0
 10 11  1  0
 11 12  2  0
 12 13  1  0
 12 14  1  0
 14 15  2  0
 15 16  1  0
 16 17  2  0
 17 18  1  0
 18 19  1  0
  9  5  1  0
 19 10  2  0
 18 14  1  0
  3 20  1  0
  4 21  1  0
  4 22  1  0
  7 23  1  0
  8 24  1  0
 11 25  1  0
 16 26  1  0
 17 27  1  0
 19 28  1  0
M  END
>  <Energy>  (554) 
43.449960815081681

>  <compound_id>  (554) 
5566

>  <target_id>  (554) 
1

>  <reference_id>  (554) 
88

>  <inspiration_ids>  (554) 
[45, 88]

>  <energy_score>  (554) 
-14.57191218816115

>  <distance_score>  (554) 
3.2755911966746267

>  <path>  (554) 
/opt/xchem-fragalysis-2/maxwin/BulkDock/SCRATCH/511018/C5566-P88/C5566-P88.minimised.mol

>  <scratch_subdir>  (554) 
/opt/xchem-fragalysis-2/maxwin/BulkDock/SCRATCH/511018/C5566-P88

>  <fragmenstein_runtime>  (554) 
9.53575348854065

>  <fragmenstein_outcome>  (554) 
too moved

>  <fragmenstein_mode>  (554) 
expansion

>  <fragmenstein_error>  (554) 


$$$$
C5567-P45
     RDKit          3D

 31 33  0  0  0  0  0  0  0  0999 V2000
  -10.1794  -24.4026   32.9914 C   0  0  0  0  0  0  0  0  0  0  0  0
  -10.8951  -23.4690   32.0854 C   0  0  0  0  0  0  0  0  0  0  0  0
  -11.5184  -22.2722   32.3760 C   0  0  0  0  0  0  0  0  0  0  0  0
  -11.9457  -21.6583   31.2343 N   0  0  0  0  0  0  0  0  0  0  0  0
  -11.6644  -22.4774   30.2499 C   0  0  0  0  0  0  0  0  0  0  0  0
  -11.8511  -22.3659   28.8518 C   0  0  0  0  0  0  0  0  0  0  0  0
  -11.5944  -23.4028   28.0354 C   0  0  0  0  0  0  0  0  0  0  0  0
  -11.0292  -24.6276   28.5488 C   0  0  0  0  0  0  0  0  0  0  0  0
  -10.7572  -25.7946   27.6554 C   0  0  0  0  0  0  0  0  0  0  0  0
  -11.5526  -26.2706   26.9547 O   0  0  0  0  0  0  0  0  0  0  0  0
   -9.2819  -26.1458   27.8660 N   0  0  0  0  0  0  0  0  0  0  0  0
   -8.4456  -27.0935   27.1931 C   0  0  0  0  0  0  0  0  0  0  0  0
   -7.1369  -26.3798   27.0419 C   0  0  0  0  0  0  0  0  0  0  0  0
   -6.9904  -25.0813   27.2720 N   0  0  0  0  0  0  0  0  0  0  0  0
   -5.6553  -24.7538   27.2559 C   0  0  0  0  0  0  0  0  0  0  0  0
   -4.7993  -25.8020   27.0061 C   0  0  0  0  0  0  0  0  0  0  0  0
   -5.6841  -27.2560   26.7911 S   0  0  0  0  0  0  0  0  0  0  0  0
  -10.7019  -24.6803   29.8516 C   0  0  0  0  0  0  0  0  0  0  0  0
  -11.0551  -23.6278   30.7085 N   0  0  0  0  0  0  0  0  0  0  0  0
   -9.9331  -25.3530   32.5114 H   0  0  0  0  0  0  0  0  0  0  0  0
  -10.7988  -24.6304   33.8636 H   0  0  0  0  0  0  0  0  0  0  0  0
   -9.2345  -23.9637   33.3174 H   0  0  0  0  0  0  0  0  0  0  0  0
  -11.6589  -21.8157   33.3479 H   0  0  0  0  0  0  0  0  0  0  0  0
  -12.1961  -21.4246   28.4704 H   0  0  0  0  0  0  0  0  0  0  0  0
  -11.7563  -23.3129   26.9637 H   0  0  0  0  0  0  0  0  0  0  0  0
   -8.8596  -25.4705   28.4950 H   0  0  0  0  0  0  0  0  0  0  0  0
   -8.9045  -27.4061   26.2614 H   0  0  0  0  0  0  0  0  0  0  0  0
   -8.3558  -27.9634   27.8444 H   0  0  0  0  0  0  0  0  0  0  0  0
   -5.3568  -23.7330   27.4544 H   0  0  0  0  0  0  0  0  0  0  0  0
   -3.7203  -25.8053   26.9432 H   0  0  0  0  0  0  0  0  0  0  0  0
  -10.2190  -25.5413   30.3002 H   0  0  0  0  0  0  0  0  0  0  0  0
  1  2  1  0
  2  3  2  0
  3  4  1  0
  4  5  2  0
  5  6  1  0
  6  7  2  0
  7  8  1  0
  8  9  1  0
  9 10  2  0
  9 11  1  0
 11 12  1  0
 12 13  1  0
 13 14  2  0
 14 15  1  0
 15 16  2  0
 16 17  1  0
  8 18  2  0
 18 19  1  0
 19  2  1  0
 19  5  1  0
 17 13  1  0
  1 20  1  0
  1 21  1  0
  1 22  1  0
  3 23  1  0
  6 24  1  0
  7 25  1  0
 11 26  1  0
 12 27  1  0
 12 28  1  0
 15 29  1  0
 16 30  1  0
 18 31  1  0
M  END
>  <Energy>  (555) 
35.859486574198762

>  <compound_id>  (555) 
5567

>  <target_id>  (555) 
1

>  <reference_id>  (555) 
45

>  <inspiration_ids>  (555) 
[45, 88]

>  <energy_score>  (555) 
-40.11703404766419

>  <distance_score>  (555) 
1.7202840225061855

>  <path>  (555) 
/opt/xchem-fragalysis-2/maxwin/BulkDock/SCRATCH/511018/C5567-P45/C5567-P45.minimised.mol

>  <scratch_subdir>  (555) 
/opt/xchem-fragalysis-2/maxwin/BulkDock/SCRATCH/511018/C5567-P45

>  <fragmenstein_runtime>  (555) 
8.575056076049805

>  <fragmenstein_outcome>  (555) 
too moved

>  <fragmenstein_mode>  (555) 
expansion

>  <fragmenstein_error>  (555) 


$$$$
C5567-P88
     RDKit          3D

 31 33  0  0  0  0  0  0  0  0999 V2000
  -11.9359  -20.5432   33.8712 C   0  0  0  0  0  0  0  0  0  0  0  0
  -11.0044  -21.6805   33.7499 C   0  0  0  0  0  0  0  0  0  0  0  0
  -10.2872  -22.3525   34.7092 C   0  0  0  0  0  0  0  0  0  0  0  0
   -9.4940  -23.3296   34.1867 N   0  0  0  0  0  0  0  0  0  0  0  0
   -9.7666  -23.3078   32.9036 C   0  0  0  0  0  0  0  0  0  0  0  0
   -9.2969  -24.1401   31.8619 C   0  0  0  0  0  0  0  0  0  0  0  0
   -9.8321  -24.0292   30.6357 C   0  0  0  0  0  0  0  0  0  0  0  0
  -10.9210  -23.0900   30.3730 C   0  0  0  0  0  0  0  0  0  0  0  0
  -11.8233  -23.2977   29.2152 C   0  0  0  0  0  0  0  0  0  0  0  0
  -12.9885  -23.4516   29.4243 O   0  0  0  0  0  0  0  0  0  0  0  0
  -11.0804  -23.3680   28.0109 N   0  0  0  0  0  0  0  0  0  0  0  0
  -11.4748  -23.7388   26.6835 C   0  0  0  0  0  0  0  0  0  0  0  0
  -12.0341  -25.1442   26.7566 C   0  0  0  0  0  0  0  0  0  0  0  0
  -13.0434  -25.5742   26.0279 N   0  0  0  0  0  0  0  0  0  0  0  0
  -13.4692  -26.7976   26.4944 C   0  0  0  0  0  0  0  0  0  0  0  0
  -12.7453  -27.3337   27.5342 C   0  0  0  0  0  0  0  0  0  0  0  0
  -11.4460  -26.2985   27.9157 S   0  0  0  0  0  0  0  0  0  0  0  0
  -11.3306  -22.2552   31.3397 C   0  0  0  0  0  0  0  0  0  0  0  0
  -10.7345  -22.3548   32.5880 N   0  0  0  0  0  0  0  0  0  0  0  0
  -11.7844  -20.0161   34.8173 H   0  0  0  0  0  0  0  0  0  0  0  0
  -12.9741  -20.8791   33.8428 H   0  0  0  0  0  0  0  0  0  0  0  0
  -11.7821  -19.8182   33.0654 H   0  0  0  0  0  0  0  0  0  0  0  0
  -10.3109  -22.1692   35.7690 H   0  0  0  0  0  0  0  0  0  0  0  0
   -8.5352  -24.8704   32.1015 H   0  0  0  0  0  0  0  0  0  0  0  0
   -9.4964  -24.6876   29.8428 H   0  0  0  0  0  0  0  0  0  0  0  0
  -10.1237  -23.0987   28.1983 H   0  0  0  0  0  0  0  0  0  0  0  0
  -10.6110  -23.6884   26.0181 H   0  0  0  0  0  0  0  0  0  0  0  0
  -12.2500  -23.0454   26.3458 H   0  0  0  0  0  0  0  0  0  0  0  0
  -14.3366  -27.2596   26.0396 H   0  0  0  0  0  0  0  0  0  0  0  0
  -12.9038  -28.2693   28.0499 H   0  0  0  0  0  0  0  0  0  0  0  0
  -12.1926  -21.6042   31.2508 H   0  0  0  0  0  0  0  0  0  0  0  0
  1  2  1  0
  2  3  2  0
  3  4  1  0
  4  5  2  0
  5  6  1  0
  6  7  2  0
  7  8  1  0
  8  9  1  0
  9 10  2  0
  9 11  1  0
 11 12  1  0
 12 13  1  0
 13 14  2  0
 14 15  1  0
 15 16  2  0
 16 17  1  0
  8 18  2  0
 18 19  1  0
 19  2  1  0
 19  5  1  0
 17 13  1  0
  1 20  1  0
  1 21  1  0
  1 22  1  0
  3 23  1  0
  6 24  1  0
  7 25  1  0
 11 26  1  0
 12 27  1  0
 12 28  1  0
 15 29  1  0
 16 30  1  0
 18 31  1  0
M  END
>  <Energy>  (556) 
33.217580260449381

>  <compound_id>  (556) 
5567

>  <target_id>  (556) 
1

>  <reference_id>  (556) 
88

>  <inspiration_ids>  (556) 
[45, 88]

>  <energy_score>  (556) 
-19.13284474703471

>  <distance_score>  (556) 
4.622392480076016

>  <path>  (556) 
/opt/xchem-fragalysis-2/maxwin/BulkDock/SCRATCH/511018/C5567-P88/C5567-P88.minimised.mol

>  <scratch_subdir>  (556) 
/opt/xchem-fragalysis-2/maxwin/BulkDock/SCRATCH/511018/C5567-P88

>  <fragmenstein_runtime>  (556) 
11.487006187438965

>  <fragmenstein_outcome>  (556) 
too moved

>  <fragmenstein_mode>  (556) 
expansion

>  <fragmenstein_error>  (556) 


$$$$
C5568-P45
     RDKit          3D

 31 33  0  0  0  0  0  0  0  0999 V2000
  -10.0933  -25.0120   25.5998 C   0  0  0  0  0  0  0  0  0  0  0  0
  -10.1684  -24.9950   27.1080 N   0  0  0  0  0  0  0  0  0  0  0  0
  -10.8046  -25.9426   28.0552 C   0  0  0  0  0  0  0  0  0  0  0  0
  -11.3302  -26.9683   27.8618 O   0  0  0  0  0  0  0  0  0  0  0  0
  -10.7113  -25.2581   29.3420 C   0  0  0  0  0  0  0  0  0  0  0  0
   -9.9112  -25.8229   30.4079 C   0  0  0  0  0  0  0  0  0  0  0  0
   -9.7722  -25.1827   31.5821 C   0  0  0  0  0  0  0  0  0  0  0  0
  -10.5111  -23.9788   31.7813 C   0  0  0  0  0  0  0  0  0  0  0  0
  -10.6881  -23.2625   32.8546 N   0  0  0  0  0  0  0  0  0  0  0  0
  -11.5355  -22.2278   32.4990 C   0  0  0  0  0  0  0  0  0  0  0  0
  -12.0352  -21.2938   33.5363 C   0  0  0  0  0  0  0  0  0  0  0  0
  -11.8564  -21.7782   34.7756 F   0  0  0  0  0  0  0  0  0  0  0  0
  -11.4024  -20.0930   33.4698 F   0  0  0  0  0  0  0  0  0  0  0  0
  -13.3619  -21.0305   33.3848 F   0  0  0  0  0  0  0  0  0  0  0  0
  -11.8057  -22.2797   31.1414 C   0  0  0  0  0  0  0  0  0  0  0  0
  -11.2287  -23.4405   30.7050 N   0  0  0  0  0  0  0  0  0  0  0  0
  -11.3281  -24.0678   29.4777 C   0  0  0  0  0  0  0  0  0  0  0  0
   -8.7373  -25.2973   26.9312 C   0  0  0  0  0  0  0  0  0  0  0  0
   -8.1357  -26.4614   26.7951 N   0  0  0  0  0  0  0  0  0  0  0  0
   -6.7576  -26.2849   26.8640 C   0  0  0  0  0  0  0  0  0  0  0  0
   -6.3286  -25.0190   27.1979 C   0  0  0  0  0  0  0  0  0  0  0  0
   -7.6863  -24.0523   27.5464 S   0  0  0  0  0  0  0  0  0  0  0  0
  -10.5588  -25.9542   25.2825 H   0  0  0  0  0  0  0  0  0  0  0  0
  -10.8522  -24.2708   25.3076 H   0  0  0  0  0  0  0  0  0  0  0  0
   -9.2087  -24.7375   25.0155 H   0  0  0  0  0  0  0  0  0  0  0  0
   -9.4867  -26.8085   30.2573 H   0  0  0  0  0  0  0  0  0  0  0  0
   -9.2140  -25.6097   32.4107 H   0  0  0  0  0  0  0  0  0  0  0  0
  -12.4214  -21.6814   30.4915 H   0  0  0  0  0  0  0  0  0  0  0  0
  -11.9259  -23.5900   28.7112 H   0  0  0  0  0  0  0  0  0  0  0  0
   -6.1040  -27.1268   26.6600 H   0  0  0  0  0  0  0  0  0  0  0  0
   -5.3126  -24.6686   27.3200 H   0  0  0  0  0  0  0  0  0  0  0  0
  1  2  1  0
  2  3  1  0
  3  4  2  0
  3  5  1  0
  5  6  1  0
  6  7  2  0
  7  8  1  0
  8  9  2  0
  9 10  1  0
 10 11  1  0
 11 12  1  0
 11 13  1  0
 11 14  1  0
 10 15  2  0
 15 16  1  0
 16 17  1  0
  2 18  1  0
 18 19  2  0
 19 20  1  0
 20 21  2  0
 21 22  1  0
 17  5  2  0
 22 18  1  0
 16  8  1  0
  1 23  1  0
  1 24  1  0
  1 25  1  0
  6 26  1  0
  7 27  1  0
 15 28  1  0
 17 29  1  0
 20 30  1  0
 21 31  1  0
M  END
>  <Energy>  (557) 
163.63039812269056

>  <compound_id>  (557) 
5568

>  <target_id>  (557) 
1

>  <reference_id>  (557) 
45

>  <inspiration_ids>  (557) 
[45, 88]

>  <energy_score>  (557) 
0.4109485048792294

>  <distance_score>  (557) 
1.8814924883524986

>  <path>  (557) 
/opt/xchem-fragalysis-2/maxwin/BulkDock/SCRATCH/511018/C5568-P45/C5568-P45.minimised.mol

>  <scratch_subdir>  (557) 
/opt/xchem-fragalysis-2/maxwin/BulkDock/SCRATCH/511018/C5568-P45

>  <fragmenstein_runtime>  (557) 
15.398827314376831

>  <fragmenstein_outcome>  (557) 
too moved

>  <fragmenstein_mode>  (557) 
expansion

>  <fragmenstein_error>  (557) 


$$$$
C5568-P88
     RDKit          3D

 31 33  0  0  0  0  0  0  0  0999 V2000
  -15.1199  -24.3440   26.0461 C   0  0  0  0  0  0  0  0  0  0  0  0
  -14.2472  -24.6432   27.2855 N   0  0  0  0  0  0  0  0  0  0  0  0
  -14.1535  -25.7954   28.0878 C   0  0  0  0  0  0  0  0  0  0  0  0
  -14.6633  -26.8787   27.9659 O   0  0  0  0  0  0  0  0  0  0  0  0
  -13.1521  -25.5809   29.2091 C   0  0  0  0  0  0  0  0  0  0  0  0
  -12.7598  -26.7446   30.0020 C   0  0  0  0  0  0  0  0  0  0  0  0
  -11.8144  -26.6670   30.9510 C   0  0  0  0  0  0  0  0  0  0  0  0
  -11.1373  -25.4350   31.1855 C   0  0  0  0  0  0  0  0  0  0  0  0
  -10.2473  -25.0952   32.0919 N   0  0  0  0  0  0  0  0  0  0  0  0
  -10.0975  -23.7155   31.9819 C   0  0  0  0  0  0  0  0  0  0  0  0
   -9.2639  -22.9210   32.9480 C   0  0  0  0  0  0  0  0  0  0  0  0
   -9.3168  -23.4139   34.2146 F   0  0  0  0  0  0  0  0  0  0  0  0
   -7.9618  -22.8993   32.5759 F   0  0  0  0  0  0  0  0  0  0  0  0
   -9.6696  -21.6245   33.0138 F   0  0  0  0  0  0  0  0  0  0  0  0
  -10.8440  -23.2577   30.9065 C   0  0  0  0  0  0  0  0  0  0  0  0
  -11.5352  -24.3427   30.4341 N   0  0  0  0  0  0  0  0  0  0  0  0
  -12.5187  -24.4101   29.4546 C   0  0  0  0  0  0  0  0  0  0  0  0
  -13.1884  -24.6458   26.2756 C   0  0  0  0  0  0  0  0  0  0  0  0
  -12.3360  -25.6495   26.1941 N   0  0  0  0  0  0  0  0  0  0  0  0
  -11.0614  -25.1814   26.4302 C   0  0  0  0  0  0  0  0  0  0  0  0
  -10.9074  -23.8179   26.3802 C   0  0  0  0  0  0  0  0  0  0  0  0
  -12.4120  -23.0951   26.0595 S   0  0  0  0  0  0  0  0  0  0  0  0
  -16.1405  -24.3787   26.4553 H   0  0  0  0  0  0  0  0  0  0  0  0
  -15.1205  -25.1593   25.3047 H   0  0  0  0  0  0  0  0  0  0  0  0
  -15.0274  -23.3285   25.6400 H   0  0  0  0  0  0  0  0  0  0  0  0
  -13.2816  -27.6830   29.8254 H   0  0  0  0  0  0  0  0  0  0  0  0
  -11.6030  -27.5269   31.5742 H   0  0  0  0  0  0  0  0  0  0  0  0
  -10.9943  -22.2626   30.5120 H   0  0  0  0  0  0  0  0  0  0  0  0
  -12.7219  -23.4815   28.9477 H   0  0  0  0  0  0  0  0  0  0  0  0
  -10.2775  -25.8934   26.6358 H   0  0  0  0  0  0  0  0  0  0  0  0
  -10.0177  -23.2261   26.5092 H   0  0  0  0  0  0  0  0  0  0  0  0
  1  2  1  0
  2  3  1  0
  3  4  2  0
  3  5  1  0
  5  6  1  0
  6  7  2  0
  7  8  1  0
  8  9  2  0
  9 10  1  0
 10 11  1  0
 11 12  1  0
 11 13  1  0
 11 14  1  0
 10 15  2  0
 15 16  1  0
 16 17  1  0
  2 18  1  0
 18 19  2  0
 19 20  1  0
 20 21  2  0
 21 22  1  0
 17  5  2  0
 22 18  1  0
 16  8  1  0
  1 23  1  0
  1 24  1  0
  1 25  1  0
  6 26  1  0
  7 27  1  0
 15 28  1  0
 17 29  1  0
 20 30  1  0
 21 31  1  0
M  END
>  <Energy>  (558) 
159.71946089506952

>  <compound_id>  (558) 
5568

>  <target_id>  (558) 
1

>  <reference_id>  (558) 
88

>  <inspiration_ids>  (558) 
[45, 88]

>  <energy_score>  (558) 
8.109723628210247

>  <distance_score>  (558) 
3.761049437781539

>  <path>  (558) 
/opt/xchem-fragalysis-2/maxwin/BulkDock/SCRATCH/511018/C5568-P88/C5568-P88.minimised.mol

>  <scratch_subdir>  (558) 
/opt/xchem-fragalysis-2/maxwin/BulkDock/SCRATCH/511018/C5568-P88

>  <fragmenstein_runtime>  (558) 
20.988723039627075

>  <fragmenstein_outcome>  (558) 
too moved

>  <fragmenstein_mode>  (558) 
expansion

>  <fragmenstein_error>  (558) 


$$$$
C5572-P45
     RDKit          3D

 39 41  0  0  0  0  0  0  0  0999 V2000
  -12.1361  -23.6072   25.7776 C   0  0  0  0  0  0  0  0  0  0  0  0
  -11.5062  -24.8164   26.4598 C   0  0  0  0  0  0  0  0  0  0  0  0
  -10.0974  -24.9144   25.8937 C   0  0  0  0  0  0  0  0  0  0  0  0
  -12.2805  -26.0898   26.0562 C   0  0  0  0  0  0  0  0  0  0  0  0
  -11.3489  -24.6471   27.9664 C   0  0  0  0  0  0  0  0  0  0  0  0
  -11.7065  -23.4886   28.6151 N   0  0  0  0  0  0  0  0  0  0  0  0
  -11.2923  -23.6370   29.8508 C   0  0  0  0  0  0  0  0  0  0  0  0
  -11.5225  -22.8389   31.0101 C   0  0  0  0  0  0  0  0  0  0  0  0
  -11.0159  -23.2136   32.2035 C   0  0  0  0  0  0  0  0  0  0  0  0
  -10.1150  -24.3544   32.3191 C   0  0  0  0  0  0  0  0  0  0  0  0
   -9.8702  -25.1079   31.2257 C   0  0  0  0  0  0  0  0  0  0  0  0
  -10.5103  -24.7921   30.0010 N   0  0  0  0  0  0  0  0  0  0  0  0
  -10.6865  -25.5132   28.8355 C   0  0  0  0  0  0  0  0  0  0  0  0
  -10.2532  -26.8402   28.5196 C   0  0  0  0  0  0  0  0  0  0  0  0
  -10.9700  -27.7806   28.2092 O   0  0  0  0  0  0  0  0  0  0  0  0
   -8.9141  -26.8841   28.5207 O   0  0  0  0  0  0  0  0  0  0  0  0
   -8.3118  -27.5221   27.3828 C   0  0  0  0  0  0  0  0  0  0  0  0
   -7.1429  -26.6327   27.0756 C   0  0  0  0  0  0  0  0  0  0  0  0
   -7.1714  -25.3132   27.1769 N   0  0  0  0  0  0  0  0  0  0  0  0
   -5.8883  -24.8113   27.1342 C   0  0  0  0  0  0  0  0  0  0  0  0
   -4.8994  -25.7549   26.9746 C   0  0  0  0  0  0  0  0  0  0  0  0
   -5.5888  -27.3158   26.8138 S   0  0  0  0  0  0  0  0  0  0  0  0
  -11.9210  -23.5762   24.7030 H   0  0  0  0  0  0  0  0  0  0  0  0
  -13.2146  -23.6145   25.8410 H   0  0  0  0  0  0  0  0  0  0  0  0
  -11.7775  -22.6794   26.2252 H   0  0  0  0  0  0  0  0  0  0  0  0
   -9.4006  -24.2782   26.4388 H   0  0  0  0  0  0  0  0  0  0  0  0
   -9.7250  -25.9137   26.0257 H   0  0  0  0  0  0  0  0  0  0  0  0
  -10.0555  -24.6851   24.8298 H   0  0  0  0  0  0  0  0  0  0  0  0
  -11.6165  -26.9407   25.8668 H   0  0  0  0  0  0  0  0  0  0  0  0
  -12.9721  -26.4173   26.8361 H   0  0  0  0  0  0  0  0  0  0  0  0
  -12.8490  -25.9430   25.1308 H   0  0  0  0  0  0  0  0  0  0  0  0
  -12.1741  -21.9794   30.9147 H   0  0  0  0  0  0  0  0  0  0  0  0
  -11.2573  -22.6650   33.1094 H   0  0  0  0  0  0  0  0  0  0  0  0
   -9.6925  -24.6077   33.2850 H   0  0  0  0  0  0  0  0  0  0  0  0
   -9.2675  -26.0064   31.2680 H   0  0  0  0  0  0  0  0  0  0  0  0
   -7.9994  -28.5283   27.6481 H   0  0  0  0  0  0  0  0  0  0  0  0
   -8.9869  -27.6281   26.5328 H   0  0  0  0  0  0  0  0  0  0  0  0
   -5.7311  -23.7463   27.2438 H   0  0  0  0  0  0  0  0  0  0  0  0
   -3.8279  -25.6347   26.9239 H   0  0  0  0  0  0  0  0  0  0  0  0
  1  2  1  0
  2  3  1  0
  2  4  1  0
  2  5  1  0
  5  6  1  0
  6  7  2  0
  7  8  1  0
  8  9  2  0
  9 10  1  0
 10 11  2  0
 11 12  1  0
 12 13  1  0
 13 14  1  0
 14 15  2  0
 14 16  1  0
 16 17  1  0
 17 18  1  0
 18 19  2  0
 19 20  1  0
 20 21  2  0
 21 22  1  0
 13  5  2  0
 22 18  1  0
 12  7  1  0
  1 23  1  0
  1 24  1  0
  1 25  1  0
  3 26  1  0
  3 27  1  0
  3 28  1  0
  4 29  1  0
  4 30  1  0
  4 31  1  0
  8 32  1  0
  9 33  1  0
 10 34  1  0
 11 35  1  0
 17 36  1  0
 17 37  1  0
 20 38  1  0
 21 39  1  0
M  END
>  <Energy>  (559) 
48.141190615398116

>  <compound_id>  (559) 
5572

>  <target_id>  (559) 
1

>  <reference_id>  (559) 
45

>  <inspiration_ids>  (559) 
[45, 88]

>  <energy_score>  (559) 
-43.55608185160884

>  <distance_score>  (559) 
2.166487960216414

>  <path>  (559) 
/opt/xchem-fragalysis-2/maxwin/BulkDock/SCRATCH/511018/C5572-P45/C5572-P45.minimised.mol

>  <scratch_subdir>  (559) 
/opt/xchem-fragalysis-2/maxwin/BulkDock/SCRATCH/511018/C5572-P45

>  <fragmenstein_runtime>  (559) 
7.97914981842041

>  <fragmenstein_outcome>  (559) 
too moved

>  <fragmenstein_mode>  (559) 
expansion

>  <fragmenstein_error>  (559) 


$$$$
C5572-P88
     RDKit          3D

 39 41  0  0  0  0  0  0  0  0999 V2000
  -11.9720  -23.2345   26.6504 C   0  0  0  0  0  0  0  0  0  0  0  0
  -12.1726  -24.4730   27.5430 C   0  0  0  0  0  0  0  0  0  0  0  0
  -11.3595  -25.5773   26.8727 C   0  0  0  0  0  0  0  0  0  0  0  0
  -13.6618  -24.8625   27.5400 C   0  0  0  0  0  0  0  0  0  0  0  0
  -11.6976  -24.1812   28.9605 C   0  0  0  0  0  0  0  0  0  0  0  0
  -11.6075  -22.8547   29.3411 N   0  0  0  0  0  0  0  0  0  0  0  0
  -11.1838  -22.8545   30.5776 C   0  0  0  0  0  0  0  0  0  0  0  0
  -10.9751  -21.7884   31.4914 C   0  0  0  0  0  0  0  0  0  0  0  0
  -10.3670  -22.0178   32.6684 C   0  0  0  0  0  0  0  0  0  0  0  0
   -9.8903  -23.3397   33.0190 C   0  0  0  0  0  0  0  0  0  0  0  0
  -10.1719  -24.3667   32.1976 C   0  0  0  0  0  0  0  0  0  0  0  0
  -10.8785  -24.1367   31.0024 N   0  0  0  0  0  0  0  0  0  0  0  0
  -11.4239  -25.0066   30.0584 C   0  0  0  0  0  0  0  0  0  0  0  0
  -11.6563  -26.4061   30.3186 C   0  0  0  0  0  0  0  0  0  0  0  0
  -11.7743  -26.8955   31.4363 O   0  0  0  0  0  0  0  0  0  0  0  0
  -11.7674  -27.1184   29.1777 O   0  0  0  0  0  0  0  0  0  0  0  0
  -11.6874  -28.5598   29.2473 C   0  0  0  0  0  0  0  0  0  0  0  0
  -10.4968  -28.9643   28.4158 C   0  0  0  0  0  0  0  0  0  0  0  0
   -9.6612  -28.1164   27.8501 N   0  0  0  0  0  0  0  0  0  0  0  0
   -8.5446  -28.7437   27.3181 C   0  0  0  0  0  0  0  0  0  0  0  0
   -8.7290  -30.0861   27.1536 C   0  0  0  0  0  0  0  0  0  0  0  0
  -10.2575  -30.5446   27.8054 S   0  0  0  0  0  0  0  0  0  0  0  0
  -10.9074  -23.0093   26.5195 H   0  0  0  0  0  0  0  0  0  0  0  0
  -12.4186  -23.3625   25.6596 H   0  0  0  0  0  0  0  0  0  0  0  0
  -12.4300  -22.3623   27.0998 H   0  0  0  0  0  0  0  0  0  0  0  0
  -10.3575  -25.6605   27.3020 H   0  0  0  0  0  0  0  0  0  0  0  0
  -11.8734  -26.5364   26.9523 H   0  0  0  0  0  0  0  0  0  0  0  0
  -11.2338  -25.4071   25.8015 H   0  0  0  0  0  0  0  0  0  0  0  0
  -14.2845  -24.0926   28.0007 H   0  0  0  0  0  0  0  0  0  0  0  0
  -14.0278  -25.0241   26.5195 H   0  0  0  0  0  0  0  0  0  0  0  0
  -13.8392  -25.7855   28.1031 H   0  0  0  0  0  0  0  0  0  0  0  0
  -11.3249  -20.7994   31.2203 H   0  0  0  0  0  0  0  0  0  0  0  0
  -10.2188  -21.2130   33.3816 H   0  0  0  0  0  0  0  0  0  0  0  0
   -9.3372  -23.4702   33.9422 H   0  0  0  0  0  0  0  0  0  0  0  0
   -9.8754  -25.3827   32.4165 H   0  0  0  0  0  0  0  0  0  0  0  0
  -11.5913  -28.9240   30.2730 H   0  0  0  0  0  0  0  0  0  0  0  0
  -12.6102  -28.9578   28.8138 H   0  0  0  0  0  0  0  0  0  0  0  0
   -7.7205  -28.1511   26.9454 H   0  0  0  0  0  0  0  0  0  0  0  0
   -8.0904  -30.8021   26.6584 H   0  0  0  0  0  0  0  0  0  0  0  0
  1  2  1  0
  2  3  1  0
  2  4  1  0
  2  5  1  0
  5  6  1  0
  6  7  2  0
  7  8  1  0
  8  9  2  0
  9 10  1  0
 10 11  2  0
 11 12  1  0
 12 13  1  0
 13 14  1  0
 14 15  2  0
 14 16  1  0
 16 17  1  0
 17 18  1  0
 18 19  2  0
 19 20  1  0
 20 21  2  0
 21 22  1  0
 13  5  2  0
 22 18  1  0
 12  7  1  0
  1 23  1  0
  1 24  1  0
  1 25  1  0
  3 26  1  0
  3 27  1  0
  3 28  1  0
  4 29  1  0
  4 30  1  0
  4 31  1  0
  8 32  1  0
  9 33  1  0
 10 34  1  0
 11 35  1  0
 17 36  1  0
 17 37  1  0
 20 38  1  0
 21 39  1  0
M  END
>  <Energy>  (560) 
34.856006936248022

>  <compound_id>  (560) 
5572

>  <target_id>  (560) 
1

>  <reference_id>  (560) 
88

>  <inspiration_ids>  (560) 
[45, 88]

>  <energy_score>  (560) 
-56.84126553076101

>  <distance_score>  (560) 
3.7084076371913666

>  <path>  (560) 
/opt/xchem-fragalysis-2/maxwin/BulkDock/SCRATCH/511018/C5572-P88/C5572-P88.minimised.mol

>  <scratch_subdir>  (560) 
/opt/xchem-fragalysis-2/maxwin/BulkDock/SCRATCH/511018/C5572-P88

>  <fragmenstein_runtime>  (560) 
7.923388957977295

>  <fragmenstein_outcome>  (560) 
too moved

>  <fragmenstein_mode>  (560) 
expansion

>  <fragmenstein_error>  (560) 


$$$$
C5576-P45
     RDKit          3D

 25 27  0  0  0  0  0  0  0  0999 V2000
  -10.2362  -26.6791   27.6564 O   0  0  0  0  0  0  0  0  0  0  0  0
   -9.7984  -25.7733   28.2381 C   0  0  0  0  0  0  0  0  0  0  0  0
   -8.4518  -25.0452   28.0845 N   0  0  0  0  0  0  0  0  0  0  0  0
   -7.4000  -25.3191   27.3045 C   0  0  0  0  0  0  0  0  0  0  0  0
   -7.0906  -26.4891   26.8201 N   0  0  0  0  0  0  0  0  0  0  0  0
   -5.7138  -26.5597   26.7498 C   0  0  0  0  0  0  0  0  0  0  0  0
   -5.0394  -25.4100   27.1001 C   0  0  0  0  0  0  0  0  0  0  0  0
   -6.1582  -24.1707   27.4669 S   0  0  0  0  0  0  0  0  0  0  0  0
  -10.4104  -25.1036   29.4107 C   0  0  0  0  0  0  0  0  0  0  0  0
   -9.8639  -25.5499   30.6999 C   0  0  0  0  0  0  0  0  0  0  0  0
   -9.9957  -24.8324   31.8280 C   0  0  0  0  0  0  0  0  0  0  0  0
  -10.7946  -23.6581   31.7803 C   0  0  0  0  0  0  0  0  0  0  0  0
  -11.0945  -22.8056   32.7263 N   0  0  0  0  0  0  0  0  0  0  0  0
  -11.8106  -21.8197   32.1226 C   0  0  0  0  0  0  0  0  0  0  0  0
  -11.9517  -22.0726   30.7784 C   0  0  0  0  0  0  0  0  0  0  0  0
  -11.3420  -23.2757   30.5462 N   0  0  0  0  0  0  0  0  0  0  0  0
  -11.1516  -23.9811   29.3504 C   0  0  0  0  0  0  0  0  0  0  0  0
   -8.3602  -24.3502   28.8086 H   0  0  0  0  0  0  0  0  0  0  0  0
   -5.2388  -27.4817   26.4338 H   0  0  0  0  0  0  0  0  0  0  0  0
   -3.9698  -25.2837   27.1480 H   0  0  0  0  0  0  0  0  0  0  0  0
   -9.3829  -26.5213   30.7503 H   0  0  0  0  0  0  0  0  0  0  0  0
   -9.6120  -25.1777   32.7837 H   0  0  0  0  0  0  0  0  0  0  0  0
  -12.1776  -20.9871   32.7053 H   0  0  0  0  0  0  0  0  0  0  0  0
  -12.4269  -21.5397   29.9724 H   0  0  0  0  0  0  0  0  0  0  0  0
  -11.5285  -23.5408   28.4353 H   0  0  0  0  0  0  0  0  0  0  0  0
  1  2  2  0
  2  3  1  0
  3  4  1  0
  4  5  2  0
  5  6  1  0
  6  7  2  0
  7  8  1  0
  2  9  1  0
  9 10  1  0
 10 11  2  0
 11 12  1  0
 12 13  2  0
 13 14  1  0
 14 15  2  0
 15 16  1  0
 16 17  1  0
  8  4  1  0
 17  9  2  0
 16 12  1  0
  3 18  1  0
  6 19  1  0
  7 20  1  0
 10 21  1  0
 11 22  1  0
 14 23  1  0
 15 24  1  0
 17 25  1  0
M  END
>  <Energy>  (561) 
23.317333658175091

>  <compound_id>  (561) 
5576

>  <target_id>  (561) 
1

>  <reference_id>  (561) 
45

>  <inspiration_ids>  (561) 
[45, 88]

>  <energy_score>  (561) 
-31.913797760247945

>  <distance_score>  (561) 
2.0039349703829945

>  <path>  (561) 
/opt/xchem-fragalysis-2/maxwin/BulkDock/SCRATCH/511018/C5576-P45/C5576-P45.minimised.mol

>  <scratch_subdir>  (561) 
/opt/xchem-fragalysis-2/maxwin/BulkDock/SCRATCH/511018/C5576-P45

>  <fragmenstein_runtime>  (561) 
6.6903369426727295

>  <fragmenstein_outcome>  (561) 
too moved

>  <fragmenstein_mode>  (561) 
expansion

>  <fragmenstein_error>  (561) 


$$$$
C5576-P88
     RDKit          3D

 25 27  0  0  0  0  0  0  0  0999 V2000
  -11.3152  -26.2820   30.6694 O   0  0  0  0  0  0  0  0  0  0  0  0
  -10.7925  -25.2441   30.6517 C   0  0  0  0  0  0  0  0  0  0  0  0
  -10.2543  -24.4170   29.4702 N   0  0  0  0  0  0  0  0  0  0  0  0
  -10.3258  -24.6314   28.1758 C   0  0  0  0  0  0  0  0  0  0  0  0
  -10.0490  -23.6901   27.3220 N   0  0  0  0  0  0  0  0  0  0  0  0
  -10.6638  -24.0299   26.1493 C   0  0  0  0  0  0  0  0  0  0  0  0
  -11.2515  -25.2735   26.1645 C   0  0  0  0  0  0  0  0  0  0  0  0
  -11.0929  -26.0184   27.6703 S   0  0  0  0  0  0  0  0  0  0  0  0
  -10.5682  -24.3463   31.7518 C   0  0  0  0  0  0  0  0  0  0  0  0
   -9.3553  -24.2359   32.5075 C   0  0  0  0  0  0  0  0  0  0  0  0
   -9.0748  -23.0707   33.1174 C   0  0  0  0  0  0  0  0  0  0  0  0
   -9.9949  -21.9901   32.9936 C   0  0  0  0  0  0  0  0  0  0  0  0
   -9.9535  -20.7750   33.4571 N   0  0  0  0  0  0  0  0  0  0  0  0
  -11.1313  -20.1786   33.0938 C   0  0  0  0  0  0  0  0  0  0  0  0
  -11.8745  -21.0166   32.3169 C   0  0  0  0  0  0  0  0  0  0  0  0
  -11.1464  -22.1620   32.2563 N   0  0  0  0  0  0  0  0  0  0  0  0
  -11.4157  -23.3139   31.5915 C   0  0  0  0  0  0  0  0  0  0  0  0
   -9.7840  -23.5934   29.8206 H   0  0  0  0  0  0  0  0  0  0  0  0
  -10.6350  -23.3447   25.3107 H   0  0  0  0  0  0  0  0  0  0  0  0
  -11.7975  -25.8194   25.4207 H   0  0  0  0  0  0  0  0  0  0  0  0
   -8.6658  -25.0723   32.5528 H   0  0  0  0  0  0  0  0  0  0  0  0
   -8.1611  -22.9227   33.6846 H   0  0  0  0  0  0  0  0  0  0  0  0
  -11.3792  -19.1735   33.4095 H   0  0  0  0  0  0  0  0  0  0  0  0
  -12.8464  -20.9114   31.8572 H   0  0  0  0  0  0  0  0  0  0  0  0
  -12.2638  -23.2887   30.9192 H   0  0  0  0  0  0  0  0  0  0  0  0
  1  2  2  0
  2  3  1  0
  3  4  1  0
  4  5  2  0
  5  6  1  0
  6  7  2  0
  7  8  1  0
  2  9  1  0
  9 10  1  0
 10 11  2  0
 11 12  1  0
 12 13  2  0
 13 14  1  0
 14 15  2  0
 15 16  1  0
 16 17  1  0
  8  4  1  0
 17  9  2  0
 16 12  1  0
  3 18  1  0
  6 19  1  0
  7 20  1  0
 10 21  1  0
 11 22  1  0
 14 23  1  0
 15 24  1  0
 17 25  1  0
M  END
>  <Energy>  (562) 
27.53315474074747

>  <compound_id>  (562) 
5576

>  <target_id>  (562) 
1

>  <reference_id>  (562) 
88

>  <inspiration_ids>  (562) 
[45, 88]

>  <energy_score>  (562) 
-27.697976677676536

>  <distance_score>  (562) 
3.9021484340272794

>  <path>  (562) 
/opt/xchem-fragalysis-2/maxwin/BulkDock/SCRATCH/511018/C5576-P88/C5576-P88.minimised.mol

>  <scratch_subdir>  (562) 
/opt/xchem-fragalysis-2/maxwin/BulkDock/SCRATCH/511018/C5576-P88

>  <fragmenstein_runtime>  (562) 
9.410335302352905

>  <fragmenstein_outcome>  (562) 
too moved

>  <fragmenstein_mode>  (562) 
expansion

>  <fragmenstein_error>  (562) 


$$$$
C5577-P45
     RDKit          3D

 28 30  0  0  0  0  0  0  0  0999 V2000
  -11.8254  -21.5834   31.8949 C   0  0  0  0  0  0  0  0  0  0  0  0
  -11.2374  -22.8829   32.1171 C   0  0  0  0  0  0  0  0  0  0  0  0
  -11.0110  -23.4810   33.3267 C   0  0  0  0  0  0  0  0  0  0  0  0
  -10.1471  -24.5114   33.1930 N   0  0  0  0  0  0  0  0  0  0  0  0
  -10.1069  -24.7510   31.9101 C   0  0  0  0  0  0  0  0  0  0  0  0
   -9.6870  -25.9349   31.2633 C   0  0  0  0  0  0  0  0  0  0  0  0
  -10.0460  -26.1254   29.9873 C   0  0  0  0  0  0  0  0  0  0  0  0
  -10.5743  -25.0289   29.1671 C   0  0  0  0  0  0  0  0  0  0  0  0
   -9.9461  -25.0619   27.8163 C   0  0  0  0  0  0  0  0  0  0  0  0
  -10.4149  -25.3771   26.7995 O   0  0  0  0  0  0  0  0  0  0  0  0
   -8.4935  -24.6644   28.1707 N   0  0  0  0  0  0  0  0  0  0  0  0
   -7.3888  -24.6657   27.4242 C   0  0  0  0  0  0  0  0  0  0  0  0
   -6.3867  -23.8959   27.7494 N   0  0  0  0  0  0  0  0  0  0  0  0
   -5.2215  -24.5810   27.5212 C   0  0  0  0  0  0  0  0  0  0  0  0
   -5.3460  -25.8267   26.9496 C   0  0  0  0  0  0  0  0  0  0  0  0
   -7.0118  -26.2041   26.7923 S   0  0  0  0  0  0  0  0  0  0  0  0
  -11.0324  -23.9056   29.7626 C   0  0  0  0  0  0  0  0  0  0  0  0
  -10.8437  -23.8027   31.1684 N   0  0  0  0  0  0  0  0  0  0  0  0
  -11.8619  -21.3545   30.8279 H   0  0  0  0  0  0  0  0  0  0  0  0
  -12.8450  -21.5458   32.2903 H   0  0  0  0  0  0  0  0  0  0  0  0
  -11.2392  -20.8076   32.3967 H   0  0  0  0  0  0  0  0  0  0  0  0
  -11.3848  -23.1605   34.2904 H   0  0  0  0  0  0  0  0  0  0  0  0
   -9.2350  -26.7171   31.8625 H   0  0  0  0  0  0  0  0  0  0  0  0
   -9.8274  -27.0697   29.4950 H   0  0  0  0  0  0  0  0  0  0  0  0
   -8.4503  -24.3693   29.1303 H   0  0  0  0  0  0  0  0  0  0  0  0
   -4.2861  -24.1442   27.8294 H   0  0  0  0  0  0  0  0  0  0  0  0
   -4.5655  -26.5267   26.6795 H   0  0  0  0  0  0  0  0  0  0  0  0
  -11.3684  -23.0236   29.2326 H   0  0  0  0  0  0  0  0  0  0  0  0
  1  2  1  0
  2  3  2  0
  3  4  1  0
  4  5  2  0
  5  6  1  0
  6  7  2  0
  7  8  1  0
  8  9  1  0
  9 10  2  0
  9 11  1  0
 11 12  1  0
 12 13  2  0
 13 14  1  0
 14 15  2  0
 15 16  1  0
  8 17  2  0
 17 18  1  0
 18  2  1  0
 18  5  1  0
 16 12  1  0
  1 19  1  0
  1 20  1  0
  1 21  1  0
  3 22  1  0
  6 23  1  0
  7 24  1  0
 11 25  1  0
 14 26  1  0
 15 27  1  0
 17 28  1  0
M  END
>  <Energy>  (563) 
52.695717170516318

>  <compound_id>  (563) 
5577

>  <target_id>  (563) 
1

>  <reference_id>  (563) 
45

>  <inspiration_ids>  (563) 
[45, 88]

>  <energy_score>  (563) 
-15.459027136065117

>  <distance_score>  (563) 
2.379275222214089

>  <path>  (563) 
/opt/xchem-fragalysis-2/maxwin/BulkDock/SCRATCH/511018/C5577-P45/C5577-P45.minimised.mol

>  <scratch_subdir>  (563) 
/opt/xchem-fragalysis-2/maxwin/BulkDock/SCRATCH/511018/C5577-P45

>  <fragmenstein_runtime>  (563) 
6.775467395782471

>  <fragmenstein_outcome>  (563) 
too moved

>  <fragmenstein_mode>  (563) 
expansion

>  <fragmenstein_error>  (563) 


$$$$
C5577-P88
     RDKit          3D

 28 30  0  0  0  0  0  0  0  0999 V2000
   -8.3475  -23.7595   33.1525 C   0  0  0  0  0  0  0  0  0  0  0  0
   -9.4583  -22.9148   33.5917 C   0  0  0  0  0  0  0  0  0  0  0  0
   -9.9327  -22.6689   34.8423 C   0  0  0  0  0  0  0  0  0  0  0  0
  -11.0241  -21.8732   34.8252 N   0  0  0  0  0  0  0  0  0  0  0  0
  -11.2487  -21.6122   33.5708 C   0  0  0  0  0  0  0  0  0  0  0  0
  -12.3065  -20.9130   32.9483 C   0  0  0  0  0  0  0  0  0  0  0  0
  -12.4027  -20.9565   31.6093 C   0  0  0  0  0  0  0  0  0  0  0  0
  -11.3787  -21.5751   30.8341 C   0  0  0  0  0  0  0  0  0  0  0  0
  -11.3853  -21.8846   29.4149 C   0  0  0  0  0  0  0  0  0  0  0  0
  -11.4051  -21.1147   28.5496 O   0  0  0  0  0  0  0  0  0  0  0  0
  -11.2579  -23.4142   29.3839 N   0  0  0  0  0  0  0  0  0  0  0  0
  -11.0514  -24.2339   28.3763 C   0  0  0  0  0  0  0  0  0  0  0  0
  -10.4599  -25.3657   28.6368 N   0  0  0  0  0  0  0  0  0  0  0  0
  -10.1876  -25.9338   27.4474 C   0  0  0  0  0  0  0  0  0  0  0  0
  -10.7679  -25.3204   26.3679 C   0  0  0  0  0  0  0  0  0  0  0  0
  -11.2971  -23.7746   26.7914 S   0  0  0  0  0  0  0  0  0  0  0  0
  -10.3160  -22.1403   31.4256 C   0  0  0  0  0  0  0  0  0  0  0  0
  -10.2925  -22.2030   32.7794 N   0  0  0  0  0  0  0  0  0  0  0  0
   -8.1034  -24.5121   33.9049 H   0  0  0  0  0  0  0  0  0  0  0  0
   -8.6001  -24.3082   32.2408 H   0  0  0  0  0  0  0  0  0  0  0  0
   -7.4618  -23.1483   32.9684 H   0  0  0  0  0  0  0  0  0  0  0  0
   -9.5426  -23.0489   35.7620 H   0  0  0  0  0  0  0  0  0  0  0  0
  -13.0797  -20.4726   33.5686 H   0  0  0  0  0  0  0  0  0  0  0  0
  -13.2787  -20.5346   31.1575 H   0  0  0  0  0  0  0  0  0  0  0  0
  -11.1930  -23.7658   30.3252 H   0  0  0  0  0  0  0  0  0  0  0  0
   -9.5829  -26.8205   27.4010 H   0  0  0  0  0  0  0  0  0  0  0  0
  -10.8158  -25.6576   25.3612 H   0  0  0  0  0  0  0  0  0  0  0  0
   -9.5091  -22.6568   30.9175 H   0  0  0  0  0  0  0  0  0  0  0  0
  1  2  1  0
  2  3  2  0
  3  4  1  0
  4  5  2  0
  5  6  1  0
  6  7  2  0
  7  8  1  0
  8  9  1  0
  9 10  2  0
  9 11  1  0
 11 12  1  0
 12 13  2  0
 13 14  1  0
 14 15  2  0
 15 16  1  0
  8 17  2  0
 17 18  1  0
 18  2  1  0
 18  5  1  0
 16 12  1  0
  1 19  1  0
  1 20  1  0
  1 21  1  0
  3 22  1  0
  6 23  1  0
  7 24  1  0
 11 25  1  0
 14 26  1  0
 15 27  1  0
 17 28  1  0
M  END
>  <Energy>  (564) 
30.338229049015847

>  <compound_id>  (564) 
5577

>  <target_id>  (564) 
1

>  <reference_id>  (564) 
88

>  <inspiration_ids>  (564) 
[45, 88]

>  <energy_score>  (564) 
-37.81651525756649

>  <distance_score>  (564) 
3.715627887138762

>  <path>  (564) 
/opt/xchem-fragalysis-2/maxwin/BulkDock/SCRATCH/511018/C5577-P88/C5577-P88.minimised.mol

>  <scratch_subdir>  (564) 
/opt/xchem-fragalysis-2/maxwin/BulkDock/SCRATCH/511018/C5577-P88

>  <fragmenstein_runtime>  (564) 
7.541446208953857

>  <fragmenstein_outcome>  (564) 
too moved

>  <fragmenstein_mode>  (564) 
expansion

>  <fragmenstein_error>  (564) 


$$$$
C5578-P45
     RDKit          3D

 38 41  0  0  0  0  0  0  0  0999 V2000
   -8.7742  -22.7695   28.1758 O   0  0  0  0  0  0  0  0  0  0  0  0
   -8.4862  -23.8698   28.3679 C   0  0  0  0  0  0  0  0  0  0  0  0
   -9.0590  -24.8861   29.3569 N   0  0  0  0  0  0  0  0  0  0  0  0
  -10.1942  -24.7858   30.2698 C   0  0  0  0  0  0  0  0  0  0  0  0
  -11.1989  -25.1721   29.1859 C   0  0  0  0  0  0  0  0  0  0  0  0
  -11.6171  -24.2407   28.3423 N   0  0  0  0  0  0  0  0  0  0  0  0
  -11.9895  -24.8082   27.1590 C   0  0  0  0  0  0  0  0  0  0  0  0
  -12.0273  -26.1847   27.1701 C   0  0  0  0  0  0  0  0  0  0  0  0
  -11.5223  -26.7807   28.7029 S   0  0  0  0  0  0  0  0  0  0  0  0
  -10.9195  -23.5535   30.9622 C   0  0  0  0  0  0  0  0  0  0  0  0
  -10.7179  -23.6598   32.4780 C   0  0  0  0  0  0  0  0  0  0  0  0
   -9.7790  -24.8154   32.7260 C   0  0  0  0  0  0  0  0  0  0  0  0
   -9.7691  -25.6693   31.4606 C   0  0  0  0  0  0  0  0  0  0  0  0
   -7.4965  -24.5922   27.5630 C   0  0  0  0  0  0  0  0  0  0  0  0
   -6.0659  -24.4291   27.5969 C   0  0  0  0  0  0  0  0  0  0  0  0
   -5.2651  -25.4481   27.2315 C   0  0  0  0  0  0  0  0  0  0  0  0
   -5.8475  -26.6847   26.8644 C   0  0  0  0  0  0  0  0  0  0  0  0
   -5.3372  -27.8682   26.6596 N   0  0  0  0  0  0  0  0  0  0  0  0
   -6.3991  -28.6369   26.2843 C   0  0  0  0  0  0  0  0  0  0  0  0
   -7.5843  -27.9856   26.4354 C   0  0  0  0  0  0  0  0  0  0  0  0
   -7.2163  -26.7220   26.7260 N   0  0  0  0  0  0  0  0  0  0  0  0
   -8.0401  -25.6763   26.9974 C   0  0  0  0  0  0  0  0  0  0  0  0
   -8.5196  -25.7332   29.3180 H   0  0  0  0  0  0  0  0  0  0  0  0
  -12.2557  -24.1684   26.3237 H   0  0  0  0  0  0  0  0  0  0  0  0
  -12.3133  -26.8577   26.3741 H   0  0  0  0  0  0  0  0  0  0  0  0
  -11.9967  -23.6120   30.7817 H   0  0  0  0  0  0  0  0  0  0  0  0
  -10.7648  -22.5580   30.5379 H   0  0  0  0  0  0  0  0  0  0  0  0
  -10.3689  -22.7323   32.9115 H   0  0  0  0  0  0  0  0  0  0  0  0
  -11.6416  -23.8352   33.0201 H   0  0  0  0  0  0  0  0  0  0  0  0
  -10.0861  -25.4065   33.5955 H   0  0  0  0  0  0  0  0  0  0  0  0
   -8.7733  -24.4471   32.9427 H   0  0  0  0  0  0  0  0  0  0  0  0
   -8.7353  -26.0022   31.3897 H   0  0  0  0  0  0  0  0  0  0  0  0
  -10.3135  -26.6070   31.5601 H   0  0  0  0  0  0  0  0  0  0  0  0
   -5.6578  -23.4795   27.9279 H   0  0  0  0  0  0  0  0  0  0  0  0
   -4.1837  -25.3819   27.2560 H   0  0  0  0  0  0  0  0  0  0  0  0
   -6.2929  -29.6469   25.9222 H   0  0  0  0  0  0  0  0  0  0  0  0
   -8.6052  -28.3037   26.2819 H   0  0  0  0  0  0  0  0  0  0  0  0
   -9.1029  -25.8643   26.9290 H   0  0  0  0  0  0  0  0  0  0  0  0
  1  2  2  0
  2  3  1  0
  3  4  1  0
  4  5  1  0
  5  6  2  0
  6  7  1  0
  7  8  2  0
  8  9  1  0
  4 10  1  0
 10 11  1  0
 11 12  1  0
 12 13  1  0
  2 14  1  0
 14 15  1  0
 15 16  2  0
 16 17  1  0
 17 18  2  0
 18 19  1  0
 19 20  2  0
 20 21  1  0
 21 22  1  0
 13  4  1  0
 22 14  2  0
  9  5  1  0
 21 17  1  0
  3 23  1  0
  7 24  1  0
  8 25  1  0
 10 26  1  0
 10 27  1  0
 11 28  1  0
 11 29  1  0
 12 30  1  0
 12 31  1  0
 13 32  1  0
 13 33  1  0
 15 34  1  0
 16 35  1  0
 19 36  1  0
 20 37  1  0
 22 38  1  0
M  END
>  <Energy>  (565) 
105.48934091156518

>  <compound_id>  (565) 
5578

>  <target_id>  (565) 
1

>  <reference_id>  (565) 
45

>  <inspiration_ids>  (565) 
[45, 88]

>  <energy_score>  (565) 
25.982194589684525

>  <distance_score>  (565) 
3.1207650605308976

>  <path>  (565) 
/opt/xchem-fragalysis-2/maxwin/BulkDock/SCRATCH/511018/C5578-P45/C5578-P45.minimised.mol

>  <scratch_subdir>  (565) 
/opt/xchem-fragalysis-2/maxwin/BulkDock/SCRATCH/511018/C5578-P45

>  <fragmenstein_runtime>  (565) 
8.796086311340332

>  <fragmenstein_outcome>  (565) 
too moved

>  <fragmenstein_mode>  (565) 
expansion

>  <fragmenstein_error>  (565) 


$$$$
C5578-P88
     RDKit          3D

 38 41  0  0  0  0  0  0  0  0999 V2000
  -11.3914  -26.9015   32.2233 O   0  0  0  0  0  0  0  0  0  0  0  0
  -11.6248  -26.3487   31.2222 C   0  0  0  0  0  0  0  0  0  0  0  0
  -11.3092  -24.8930   30.7784 N   0  0  0  0  0  0  0  0  0  0  0  0
  -10.5403  -23.8277   31.4561 C   0  0  0  0  0  0  0  0  0  0  0  0
  -10.6830  -22.6990   30.4350 C   0  0  0  0  0  0  0  0  0  0  0  0
  -11.2043  -21.5135   30.6576 N   0  0  0  0  0  0  0  0  0  0  0  0
  -11.3146  -20.8278   29.4758 C   0  0  0  0  0  0  0  0  0  0  0  0
  -11.0010  -21.5421   28.3489 C   0  0  0  0  0  0  0  0  0  0  0  0
  -10.2839  -22.9994   28.7921 S   0  0  0  0  0  0  0  0  0  0  0  0
  -10.8670  -23.2708   32.8359 C   0  0  0  0  0  0  0  0  0  0  0  0
   -9.6410  -22.4826   33.2652 C   0  0  0  0  0  0  0  0  0  0  0  0
   -8.5158  -23.3955   32.8221 C   0  0  0  0  0  0  0  0  0  0  0  0
   -9.0698  -24.2092   31.6439 C   0  0  0  0  0  0  0  0  0  0  0  0
  -12.2555  -27.0319   29.9923 C   0  0  0  0  0  0  0  0  0  0  0  0
  -13.4883  -26.5038   29.4471 C   0  0  0  0  0  0  0  0  0  0  0  0
  -13.5273  -25.8856   28.2568 C   0  0  0  0  0  0  0  0  0  0  0  0
  -12.3273  -25.7016   27.5486 C   0  0  0  0  0  0  0  0  0  0  0  0
  -12.0593  -24.8878   26.5700 N   0  0  0  0  0  0  0  0  0  0  0  0
  -10.7368  -25.0404   26.3644 C   0  0  0  0  0  0  0  0  0  0  0  0
  -10.1884  -25.9695   27.2297 C   0  0  0  0  0  0  0  0  0  0  0  0
  -11.2343  -26.4282   27.9730 N   0  0  0  0  0  0  0  0  0  0  0  0
  -11.2878  -27.2772   29.0796 C   0  0  0  0  0  0  0  0  0  0  0  0
  -11.7273  -24.7166   29.8734 H   0  0  0  0  0  0  0  0  0  0  0  0
  -11.6427  -19.7973   29.4936 H   0  0  0  0  0  0  0  0  0  0  0  0
  -11.0852  -21.2274   27.3251 H   0  0  0  0  0  0  0  0  0  0  0  0
  -10.8847  -24.0717   33.5552 H   0  0  0  0  0  0  0  0  0  0  0  0
  -11.7669  -22.6600   32.8920 H   0  0  0  0  0  0  0  0  0  0  0  0
   -9.5851  -21.5102   32.7694 H   0  0  0  0  0  0  0  0  0  0  0  0
   -9.6267  -22.3155   34.3449 H   0  0  0  0  0  0  0  0  0  0  0  0
   -8.2375  -24.0761   33.6351 H   0  0  0  0  0  0  0  0  0  0  0  0
   -7.6226  -22.8313   32.5571 H   0  0  0  0  0  0  0  0  0  0  0  0
   -8.4959  -24.0301   30.7338 H   0  0  0  0  0  0  0  0  0  0  0  0
   -8.9734  -25.2658   31.8980 H   0  0  0  0  0  0  0  0  0  0  0  0
  -14.3957  -26.6493   30.0262 H   0  0  0  0  0  0  0  0  0  0  0  0
  -14.4467  -25.4782   27.8503 H   0  0  0  0  0  0  0  0  0  0  0  0
  -10.2950  -24.4294   25.5895 H   0  0  0  0  0  0  0  0  0  0  0  0
   -9.1919  -26.3537   27.3603 H   0  0  0  0  0  0  0  0  0  0  0  0
  -10.4586  -27.8930   29.3366 H   0  0  0  0  0  0  0  0  0  0  0  0
  1  2  2  0
  2  3  1  0
  3  4  1  0
  4  5  1  0
  5  6  2  0
  6  7  1  0
  7  8  2  0
  8  9  1  0
  4 10  1  0
 10 11  1  0
 11 12  1  0
 12 13  1  0
  2 14  1  0
 14 15  1  0
 15 16  2  0
 16 17  1  0
 17 18  2  0
 18 19  1  0
 19 20  2  0
 20 21  1  0
 21 22  1  0
 13  4  1  0
 22 14  2  0
  9  5  1  0
 21 17  1  0
  3 23  1  0
  7 24  1  0
  8 25  1  0
 10 26  1  0
 10 27  1  0
 11 28  1  0
 11 29  1  0
 12 30  1  0
 12 31  1  0
 13 32  1  0
 13 33  1  0
 15 34  1  0
 16 35  1  0
 19 36  1  0
 20 37  1  0
 22 38  1  0
M  END
>  <Energy>  (566) 
101.96064635689174

>  <compound_id>  (566) 
5578

>  <target_id>  (566) 
1

>  <reference_id>  (566) 
88

>  <inspiration_ids>  (566) 
[45, 88]

>  <energy_score>  (566) 
22.453500035018493

>  <distance_score>  (566) 
4.206228291468454

>  <path>  (566) 
/opt/xchem-fragalysis-2/maxwin/BulkDock/SCRATCH/511018/C5578-P88/C5578-P88.minimised.mol

>  <scratch_subdir>  (566) 
/opt/xchem-fragalysis-2/maxwin/BulkDock/SCRATCH/511018/C5578-P88

>  <fragmenstein_runtime>  (566) 
7.118701457977295

>  <fragmenstein_outcome>  (566) 
too moved

>  <fragmenstein_mode>  (566) 
expansion

>  <fragmenstein_error>  (566) 


$$$$
C5579-P45
     RDKit          3D

 25 27  0  0  0  0  0  0  0  0999 V2000
  -10.3174  -26.4643   27.2689 O   0  0  0  0  0  0  0  0  0  0  0  0
   -9.8618  -25.6429   27.9537 C   0  0  0  0  0  0  0  0  0  0  0  0
   -8.4544  -25.0152   27.9606 N   0  0  0  0  0  0  0  0  0  0  0  0
   -7.3677  -25.3132   27.2422 C   0  0  0  0  0  0  0  0  0  0  0  0
   -7.0512  -26.4926   26.7866 N   0  0  0  0  0  0  0  0  0  0  0  0
   -5.6731  -26.5706   26.7513 C   0  0  0  0  0  0  0  0  0  0  0  0
   -5.0017  -25.4229   27.1138 C   0  0  0  0  0  0  0  0  0  0  0  0
   -6.1221  -24.1791   27.4578 S   0  0  0  0  0  0  0  0  0  0  0  0
  -10.5030  -25.0069   29.1316 C   0  0  0  0  0  0  0  0  0  0  0  0
   -9.9519  -25.4814   30.4059 C   0  0  0  0  0  0  0  0  0  0  0  0
  -10.0521  -24.7716   31.5404 C   0  0  0  0  0  0  0  0  0  0  0  0
   -9.2826  -25.2700   33.1366 Br  0  0  0  0  0  0  0  0  0  0  0  0
  -10.8718  -23.6086   31.5343 C   0  0  0  0  0  0  0  0  0  0  0  0
  -11.1817  -22.7828   32.5041 N   0  0  0  0  0  0  0  0  0  0  0  0
  -11.8849  -21.7833   31.9254 C   0  0  0  0  0  0  0  0  0  0  0  0
  -12.0114  -21.9992   30.5741 C   0  0  0  0  0  0  0  0  0  0  0  0
  -11.4190  -23.2032   30.3137 N   0  0  0  0  0  0  0  0  0  0  0  0
  -11.2329  -23.8779   29.1013 C   0  0  0  0  0  0  0  0  0  0  0  0
   -8.4215  -24.2695   28.6374 H   0  0  0  0  0  0  0  0  0  0  0  0
   -5.1949  -27.4958   26.4497 H   0  0  0  0  0  0  0  0  0  0  0  0
   -3.9326  -25.3004   27.1848 H   0  0  0  0  0  0  0  0  0  0  0  0
   -9.4364  -26.4360   30.4078 H   0  0  0  0  0  0  0  0  0  0  0  0
  -12.2480  -20.9698   32.5349 H   0  0  0  0  0  0  0  0  0  0  0  0
  -12.4622  -21.4355   29.7758 H   0  0  0  0  0  0  0  0  0  0  0  0
  -11.6007  -23.4086   28.1962 H   0  0  0  0  0  0  0  0  0  0  0  0
  1  2  2  0
  2  3  1  0
  3  4  1  0
  4  5  2  0
  5  6  1  0
  6  7  2  0
  7  8  1  0
  2  9  1  0
  9 10  1  0
 10 11  2  0
 11 12  1  0
 11 13  1  0
 13 14  2  0
 14 15  1  0
 15 16  2  0
 16 17  1  0
 17 18  1  0
  8  4  1  0
 18  9  2  0
 17 13  1  0
  3 19  1  0
  6 20  1  0
  7 21  1  0
 10 22  1  0
 15 23  1  0
 16 24  1  0
 18 25  1  0
M  END
>  <Energy>  (567) 
27.483120953866248

>  <compound_id>  (567) 
5579

>  <target_id>  (567) 
1

>  <reference_id>  (567) 
45

>  <inspiration_ids>  (567) 
[45, 88]

>  <energy_score>  (567) 
-25.348128870538687

>  <distance_score>  (567) 
1.9022249988239226

>  <path>  (567) 
/opt/xchem-fragalysis-2/maxwin/BulkDock/SCRATCH/511018/C5579-P45/C5579-P45.minimised.mol

>  <scratch_subdir>  (567) 
/opt/xchem-fragalysis-2/maxwin/BulkDock/SCRATCH/511018/C5579-P45

>  <fragmenstein_runtime>  (567) 
6.577146291732788

>  <fragmenstein_outcome>  (567) 
too moved

>  <fragmenstein_mode>  (567) 
expansion

>  <fragmenstein_error>  (567) 


$$$$
C5579-P88
     RDKit          3D

 25 27  0  0  0  0  0  0  0  0999 V2000
  -12.9475  -28.3632   27.1685 O   0  0  0  0  0  0  0  0  0  0  0  0
  -12.2510  -28.0366   28.0454 C   0  0  0  0  0  0  0  0  0  0  0  0
  -10.8777  -28.6145   28.5164 N   0  0  0  0  0  0  0  0  0  0  0  0
  -10.1013  -29.5809   27.9770 C   0  0  0  0  0  0  0  0  0  0  0  0
  -10.3496  -30.7848   27.5729 N   0  0  0  0  0  0  0  0  0  0  0  0
   -9.2607  -31.2443   26.8447 C   0  0  0  0  0  0  0  0  0  0  0  0
   -8.3057  -30.3089   26.5258 C   0  0  0  0  0  0  0  0  0  0  0  0
   -8.6322  -28.8989   27.3977 S   0  0  0  0  0  0  0  0  0  0  0  0
  -12.4622  -26.8806   28.9850 C   0  0  0  0  0  0  0  0  0  0  0  0
  -12.6802  -27.3475   30.3287 C   0  0  0  0  0  0  0  0  0  0  0  0
  -11.9716  -26.8480   31.3447 C   0  0  0  0  0  0  0  0  0  0  0  0
  -11.8549  -27.9368   32.8604 Br  0  0  0  0  0  0  0  0  0  0  0  0
  -11.2883  -25.5869   31.1638 C   0  0  0  0  0  0  0  0  0  0  0  0
  -10.5513  -24.8472   31.9704 N   0  0  0  0  0  0  0  0  0  0  0  0
  -10.3312  -23.6675   31.3114 C   0  0  0  0  0  0  0  0  0  0  0  0
  -10.8375  -23.7274   30.0355 C   0  0  0  0  0  0  0  0  0  0  0  0
  -11.4142  -24.9706   29.9094 N   0  0  0  0  0  0  0  0  0  0  0  0
  -11.9161  -25.6557   28.7840 C   0  0  0  0  0  0  0  0  0  0  0  0
  -10.5090  -28.0452   29.2537 H   0  0  0  0  0  0  0  0  0  0  0  0
   -9.2740  -32.2644   26.4791 H   0  0  0  0  0  0  0  0  0  0  0  0
   -7.4587  -30.4270   25.8657 H   0  0  0  0  0  0  0  0  0  0  0  0
  -13.2251  -28.2875   30.4281 H   0  0  0  0  0  0  0  0  0  0  0  0
   -9.7960  -22.8515   31.7816 H   0  0  0  0  0  0  0  0  0  0  0  0
  -10.8236  -23.0192   29.2189 H   0  0  0  0  0  0  0  0  0  0  0  0
  -11.6522  -25.2581   27.8106 H   0  0  0  0  0  0  0  0  0  0  0  0
  1  2  2  0
  2  3  1  0
  3  4  1  0
  4  5  2  0
  5  6  1  0
  6  7  2  0
  7  8  1  0
  2  9  1  0
  9 10  1  0
 10 11  2  0
 11 12  1  0
 11 13  1  0
 13 14  2  0
 14 15  1  0
 15 16  2  0
 16 17  1  0
 17 18  1  0
  8  4  1  0
 18  9  2  0
 17 13  1  0
  3 19  1  0
  6 20  1  0
  7 21  1  0
 10 22  1  0
 15 23  1  0
 16 24  1  0
 18 25  1  0
M  END
>  <Energy>  (568) 
53.218844868164005

>  <compound_id>  (568) 
5579

>  <target_id>  (568) 
1

>  <reference_id>  (568) 
88

>  <inspiration_ids>  (568) 
[45, 88]

>  <energy_score>  (568) 
0.3875950437578126

>  <distance_score>  (568) 
4.240200009728469

>  <path>  (568) 
/opt/xchem-fragalysis-2/maxwin/BulkDock/SCRATCH/511018/C5579-P88/C5579-P88.minimised.mol

>  <scratch_subdir>  (568) 
/opt/xchem-fragalysis-2/maxwin/BulkDock/SCRATCH/511018/C5579-P88

>  <fragmenstein_runtime>  (568) 
8.775034427642822

>  <fragmenstein_outcome>  (568) 
too moved

>  <fragmenstein_mode>  (568) 
expansion

>  <fragmenstein_error>  (568) 


$$$$
C5580-P45
     RDKit          3D

 28 30  0  0  0  0  0  0  0  0999 V2000
  -10.0063  -25.0614   25.3257 O   0  0  0  0  0  0  0  0  0  0  0  0
  -10.0944  -24.6565   26.4120 C   0  0  0  0  0  0  0  0  0  0  0  0
   -9.0102  -24.4555   27.4991 N   0  0  0  0  0  0  0  0  0  0  0  0
   -7.6792  -24.6122   27.4410 C   0  0  0  0  0  0  0  0  0  0  0  0
   -6.8433  -23.8261   28.0621 N   0  0  0  0  0  0  0  0  0  0  0  0
   -5.5656  -24.2722   27.8095 C   0  0  0  0  0  0  0  0  0  0  0  0
   -5.4678  -25.4515   27.1015 C   0  0  0  0  0  0  0  0  0  0  0  0
   -7.0515  -26.0434   26.7996 S   0  0  0  0  0  0  0  0  0  0  0  0
  -11.3898  -24.3216   27.0426 C   0  0  0  0  0  0  0  0  0  0  0  0
  -11.9482  -25.4693   27.7172 C   0  0  0  0  0  0  0  0  0  0  0  0
  -12.1915  -25.3852   29.0216 C   0  0  0  0  0  0  0  0  0  0  0  0
  -11.9191  -24.1517   29.6857 C   0  0  0  0  0  0  0  0  0  0  0  0
  -11.6607  -23.8835   30.9421 N   0  0  0  0  0  0  0  0  0  0  0  0
  -11.6614  -22.5089   31.0757 C   0  0  0  0  0  0  0  0  0  0  0  0
  -11.5622  -21.8917   32.4539 C   0  0  0  0  0  0  0  0  0  0  0  0
  -10.9817  -22.7353   33.3408 F   0  0  0  0  0  0  0  0  0  0  0  0
  -10.8240  -20.7527   32.4314 F   0  0  0  0  0  0  0  0  0  0  0  0
  -12.7832  -21.5393   32.9280 F   0  0  0  0  0  0  0  0  0  0  0  0
  -11.7748  -21.9656   29.8056 C   0  0  0  0  0  0  0  0  0  0  0  0
  -11.8073  -23.0172   28.9240 N   0  0  0  0  0  0  0  0  0  0  0  0
  -11.5453  -23.0838   27.5631 C   0  0  0  0  0  0  0  0  0  0  0  0
   -9.4178  -24.0068   28.3025 H   0  0  0  0  0  0  0  0  0  0  0  0
   -4.7253  -23.7257   28.2059 H   0  0  0  0  0  0  0  0  0  0  0  0
   -4.5803  -26.0010   26.8136 H   0  0  0  0  0  0  0  0  0  0  0  0
  -12.1114  -26.3840   27.1557 H   0  0  0  0  0  0  0  0  0  0  0  0
  -12.6111  -26.2407   29.5333 H   0  0  0  0  0  0  0  0  0  0  0  0
  -11.7988  -20.9664   29.4303 H   0  0  0  0  0  0  0  0  0  0  0  0
  -11.1758  -22.1686   27.1330 H   0  0  0  0  0  0  0  0  0  0  0  0
  1  2  2  0
  2  3  1  0
  3  4  1  0
  4  5  2  0
  5  6  1  0
  6  7  2  0
  7  8  1  0
  2  9  1  0
  9 10  1  0
 10 11  2  0
 11 12  1  0
 12 13  2  0
 13 14  1  0
 14 15  1  0
 15 16  1  0
 15 17  1  0
 15 18  1  0
 14 19  2  0
 19 20  1  0
 20 21  1  0
  8  4  1  0
 21  9  2  0
 20 12  1  0
  3 22  1  0
  6 23  1  0
  7 24  1  0
 10 25  1  0
 11 26  1  0
 19 27  1  0
 21 28  1  0
M  END
>  <Energy>  (569) 
109.38558106588741

>  <compound_id>  (569) 
5580

>  <target_id>  (569) 
1

>  <reference_id>  (569) 
45

>  <inspiration_ids>  (569) 
[45, 88]

>  <energy_score>  (569) 
-16.200404994091173

>  <distance_score>  (569) 
1.496680092601822

>  <path>  (569) 
/opt/xchem-fragalysis-2/maxwin/BulkDock/SCRATCH/511018/C5580-P45/C5580-P45.minimised.mol

>  <scratch_subdir>  (569) 
/opt/xchem-fragalysis-2/maxwin/BulkDock/SCRATCH/511018/C5580-P45

>  <fragmenstein_runtime>  (569) 
18.70986819267273

>  <fragmenstein_outcome>  (569) 
too moved

>  <fragmenstein_mode>  (569) 
expansion

>  <fragmenstein_error>  (569) 


$$$$
C5580-P88
     RDKit          3D

 28 30  0  0  0  0  0  0  0  0999 V2000
  -12.5943  -25.8225   29.5581 O   0  0  0  0  0  0  0  0  0  0  0  0
  -11.6209  -25.2540   29.2852 C   0  0  0  0  0  0  0  0  0  0  0  0
  -10.4602  -25.6557   28.3797 N   0  0  0  0  0  0  0  0  0  0  0  0
  -10.2203  -26.7852   27.7439 C   0  0  0  0  0  0  0  0  0  0  0  0
   -9.0523  -26.8824   27.1372 N   0  0  0  0  0  0  0  0  0  0  0  0
   -8.5004  -28.1678   27.2457 C   0  0  0  0  0  0  0  0  0  0  0  0
   -9.3142  -29.0807   27.9000 C   0  0  0  0  0  0  0  0  0  0  0  0
  -10.8419  -28.2868   28.3837 S   0  0  0  0  0  0  0  0  0  0  0  0
  -11.1413  -23.9672   29.8235 C   0  0  0  0  0  0  0  0  0  0  0  0
   -9.7778  -24.0590   30.3933 C   0  0  0  0  0  0  0  0  0  0  0  0
   -9.3187  -23.1874   31.2799 C   0  0  0  0  0  0  0  0  0  0  0  0
  -10.2030  -22.2022   31.7105 C   0  0  0  0  0  0  0  0  0  0  0  0
  -10.0627  -21.4552   32.7551 N   0  0  0  0  0  0  0  0  0  0  0  0
  -11.3494  -21.1139   33.0525 C   0  0  0  0  0  0  0  0  0  0  0  0
  -11.6628  -20.9152   34.4775 C   0  0  0  0  0  0  0  0  0  0  0  0
  -10.8020  -21.6844   35.2014 F   0  0  0  0  0  0  0  0  0  0  0  0
  -11.5054  -19.6178   34.8148 F   0  0  0  0  0  0  0  0  0  0  0  0
  -12.9231  -21.2746   34.8164 F   0  0  0  0  0  0  0  0  0  0  0  0
  -12.1471  -21.1943   31.9233 C   0  0  0  0  0  0  0  0  0  0  0  0
  -11.4588  -22.0819   31.1319 N   0  0  0  0  0  0  0  0  0  0  0  0
  -11.9362  -22.9456   30.1551 C   0  0  0  0  0  0  0  0  0  0  0  0
   -9.8125  -24.8864   28.3013 H   0  0  0  0  0  0  0  0  0  0  0  0
   -7.5711  -28.3630   26.7390 H   0  0  0  0  0  0  0  0  0  0  0  0
   -9.2144  -30.1450   28.0141 H   0  0  0  0  0  0  0  0  0  0  0  0
   -9.1201  -24.8944   30.1791 H   0  0  0  0  0  0  0  0  0  0  0  0
   -8.3481  -23.2738   31.7538 H   0  0  0  0  0  0  0  0  0  0  0  0
  -13.1968  -20.9900   31.7768 H   0  0  0  0  0  0  0  0  0  0  0  0
  -12.9799  -22.8821   29.8964 H   0  0  0  0  0  0  0  0  0  0  0  0
  1  2  2  0
  2  3  1  0
  3  4  1  0
  4  5  2  0
  5  6  1  0
  6  7  2  0
  7  8  1  0
  2  9  1  0
  9 10  1  0
 10 11  2  0
 11 12  1  0
 12 13  2  0
 13 14  1  0
 14 15  1  0
 15 16  1  0
 15 17  1  0
 15 18  1  0
 14 19  2  0
 19 20  1  0
 20 21  1  0
  8  4  1  0
 21  9  2  0
 20 12  1  0
  3 22  1  0
  6 23  1  0
  7 24  1  0
 10 25  1  0
 11 26  1  0
 19 27  1  0
 21 28  1  0
M  END
>  <Energy>  (570) 
114.77708290787479

>  <compound_id>  (570) 
5580

>  <target_id>  (570) 
1

>  <reference_id>  (570) 
88

>  <inspiration_ids>  (570) 
[45, 88]

>  <energy_score>  (570) 
-10.808903152102971

>  <distance_score>  (570) 
3.1054058940501275

>  <path>  (570) 
/opt/xchem-fragalysis-2/maxwin/BulkDock/SCRATCH/511018/C5580-P88/C5580-P88.minimised.mol

>  <scratch_subdir>  (570) 
/opt/xchem-fragalysis-2/maxwin/BulkDock/SCRATCH/511018/C5580-P88

>  <fragmenstein_runtime>  (570) 
17.100284576416016

>  <fragmenstein_outcome>  (570) 
too moved

>  <fragmenstein_mode>  (570) 
expansion

>  <fragmenstein_error>  (570) 


$$$$
C5581-P45
     RDKit          3D

 38 40  0  0  0  0  0  0  0  0999 V2000
   -9.9636  -24.8329   29.9142 C   0  0  0  0  0  0  0  0  0  0  0  0
  -11.2748  -24.2998   30.5529 N   0  0  0  0  0  0  0  0  0  0  0  0
  -11.0270  -23.0690   31.2778 C   0  0  0  0  0  0  0  0  0  0  0  0
  -11.0795  -21.9160   30.9101 O   0  0  0  0  0  0  0  0  0  0  0  0
  -10.4940  -23.2763   32.7685 C   0  0  0  0  0  0  0  0  0  0  0  0
   -8.8417  -23.0993   33.0632 C   0  0  0  0  0  0  0  0  0  0  0  0
   -7.4307  -21.3216   32.2705 S   0  0  0  0  0  0  0  0  0  0  0  0
   -7.2176  -22.5033   29.6963 C   0  0  0  0  0  0  0  0  0  0  0  0
   -6.7243  -23.9688   28.9582 C   0  0  0  0  0  0  0  0  0  0  0  0
   -5.5500  -24.2069   28.2468 C   0  0  0  0  0  0  0  0  0  0  0  0
   -5.7803  -25.3234   27.4701 N   0  0  0  0  0  0  0  0  0  0  0  0
   -4.8679  -26.2255   26.9461 C   0  0  0  0  0  0  0  0  0  0  0  0
   -5.3101  -27.4300   26.5485 C   0  0  0  0  0  0  0  0  0  0  0  0
   -6.7359  -27.7189   26.5642 C   0  0  0  0  0  0  0  0  0  0  0  0
   -7.6263  -26.7998   26.9844 C   0  0  0  0  0  0  0  0  0  0  0  0
   -7.1475  -25.5787   27.5384 C   0  0  0  0  0  0  0  0  0  0  0  0
   -7.7214  -24.7506   28.3821 N   0  0  0  0  0  0  0  0  0  0  0  0
  -11.7620  -24.5205   29.1965 C   0  0  0  0  0  0  0  0  0  0  0  0
  -11.7568  -23.5881   28.2658 N   0  0  0  0  0  0  0  0  0  0  0  0
  -11.8888  -24.1726   27.0239 C   0  0  0  0  0  0  0  0  0  0  0  0
  -12.0896  -25.5380   27.0303 C   0  0  0  0  0  0  0  0  0  0  0  0
  -12.2993  -26.0788   28.6538 S   0  0  0  0  0  0  0  0  0  0  0  0
   -9.6388  -24.2319   29.0636 H   0  0  0  0  0  0  0  0  0  0  0  0
   -9.2082  -24.7957   30.7036 H   0  0  0  0  0  0  0  0  0  0  0  0
   -9.9773  -25.9137   29.7092 H   0  0  0  0  0  0  0  0  0  0  0  0
  -11.0696  -22.5879   33.3945 H   0  0  0  0  0  0  0  0  0  0  0  0
  -10.7560  -24.2894   33.0927 H   0  0  0  0  0  0  0  0  0  0  0  0
   -8.5002  -24.0532   32.6071 H   0  0  0  0  0  0  0  0  0  0  0  0
   -8.4353  -23.2634   34.0468 H   0  0  0  0  0  0  0  0  0  0  0  0
   -8.1307  -22.5135   28.9578 H   0  0  0  0  0  0  0  0  0  0  0  0
   -6.5251  -22.1012   28.8221 H   0  0  0  0  0  0  0  0  0  0  0  0
   -4.5839  -23.7450   28.2762 H   0  0  0  0  0  0  0  0  0  0  0  0
   -3.8186  -25.9584   26.9513 H   0  0  0  0  0  0  0  0  0  0  0  0
   -4.6215  -28.1678   26.1637 H   0  0  0  0  0  0  0  0  0  0  0  0
   -7.0621  -28.6811   26.1772 H   0  0  0  0  0  0  0  0  0  0  0  0
   -8.6901  -27.0026   26.9919 H   0  0  0  0  0  0  0  0  0  0  0  0
  -11.8425  -23.5463   26.1402 H   0  0  0  0  0  0  0  0  0  0  0  0
  -12.2141  -26.2042   26.1884 H   0  0  0  0  0  0  0  0  0  0  0  0
  1  2  1  0
  2  3  1  0
  3  4  2  0
  3  5  1  0
  5  6  1  0
  6  7  1  0
  7  8  1  0
  8  9  1  0
  9 10  2  0
 10 11  1  0
 11 12  1  0
 12 13  2  0
 13 14  1  0
 14 15  2  0
 15 16  1  0
 16 17  2  0
  2 18  1  0
 18 19  2  0
 19 20  1  0
 20 21  2  0
 21 22  1  0
 17  9  1  0
 22 18  1  0
 16 11  1  0
  1 23  1  0
  1 24  1  0
  1 25  1  0
  5 26  1  0
  5 27  1  0
  6 28  1  0
  6 29  1  0
  8 30  1  0
  8 31  1  0
 10 32  1  0
 12 33  1  0
 13 34  1  0
 14 35  1  0
 15 36  1  0
 20 37  1  0
 21 38  1  0
M  END
>  <Energy>  (571) 
626.85511813079506

>  <compound_id>  (571) 
5581

>  <target_id>  (571) 
1

>  <reference_id>  (571) 
45

>  <inspiration_ids>  (571) 
[45, 88]

>  <energy_score>  (571) 
511.6058480247597

>  <distance_score>  (571) 
1.5699532179067068

>  <path>  (571) 
/opt/xchem-fragalysis-2/maxwin/BulkDock/SCRATCH/511018/C5581-P45/C5581-P45.minimised.mol

>  <scratch_subdir>  (571) 
/opt/xchem-fragalysis-2/maxwin/BulkDock/SCRATCH/511018/C5581-P45

>  <fragmenstein_runtime>  (571) 
8.311450719833374

>  <fragmenstein_outcome>  (571) 
too moved

>  <fragmenstein_mode>  (571) 
expansion

>  <fragmenstein_error>  (571) 


$$$$
C5581-P88
     RDKit          3D

 38 40  0  0  0  0  0  0  0  0999 V2000
  -14.1948  -26.2589   29.6780 C   0  0  0  0  0  0  0  0  0  0  0  0
  -14.6851  -24.7975   29.3617 N   0  0  0  0  0  0  0  0  0  0  0  0
  -13.6535  -24.0502   28.7189 C   0  0  0  0  0  0  0  0  0  0  0  0
  -13.4018  -23.9126   27.5509 O   0  0  0  0  0  0  0  0  0  0  0  0
  -12.7745  -23.1843   29.7136 C   0  0  0  0  0  0  0  0  0  0  0  0
  -11.6267  -23.7370   30.5381 C   0  0  0  0  0  0  0  0  0  0  0  0
   -9.9845  -23.4723   29.7792 S   0  0  0  0  0  0  0  0  0  0  0  0
  -10.3960  -23.7909   28.0177 C   0  0  0  0  0  0  0  0  0  0  0  0
  -10.8762  -25.1816   27.7966 C   0  0  0  0  0  0  0  0  0  0  0  0
  -10.9309  -26.2392   28.6771 C   0  0  0  0  0  0  0  0  0  0  0  0
  -11.6877  -27.1987   28.0862 N   0  0  0  0  0  0  0  0  0  0  0  0
  -11.9789  -28.4904   28.5207 C   0  0  0  0  0  0  0  0  0  0  0  0
  -12.8850  -29.2082   27.8358 C   0  0  0  0  0  0  0  0  0  0  0  0
  -13.5747  -28.5772   26.7129 C   0  0  0  0  0  0  0  0  0  0  0  0
  -13.2483  -27.3402   26.2807 C   0  0  0  0  0  0  0  0  0  0  0  0
  -12.2117  -26.6190   26.9392 C   0  0  0  0  0  0  0  0  0  0  0  0
  -11.5726  -25.5032   26.6550 N   0  0  0  0  0  0  0  0  0  0  0  0
  -15.7836  -25.5166   28.8195 C   0  0  0  0  0  0  0  0  0  0  0  0
  -15.9447  -25.7888   27.5464 N   0  0  0  0  0  0  0  0  0  0  0  0
  -17.2102  -26.2811   27.3397 C   0  0  0  0  0  0  0  0  0  0  0  0
  -18.0095  -26.3528   28.4599 C   0  0  0  0  0  0  0  0  0  0  0  0
  -17.1654  -25.7485   29.8241 S   0  0  0  0  0  0  0  0  0  0  0  0
  -13.1688  -26.1680   30.0329 H   0  0  0  0  0  0  0  0  0  0  0  0
  -14.7301  -26.7075   30.5294 H   0  0  0  0  0  0  0  0  0  0  0  0
  -14.1744  -26.9375   28.8255 H   0  0  0  0  0  0  0  0  0  0  0  0
  -12.3995  -22.3222   29.1459 H   0  0  0  0  0  0  0  0  0  0  0  0
  -13.4655  -22.6795   30.3905 H   0  0  0  0  0  0  0  0  0  0  0  0
  -11.7482  -24.7868   30.7955 H   0  0  0  0  0  0  0  0  0  0  0  0
  -11.5810  -23.1951   31.4894 H   0  0  0  0  0  0  0  0  0  0  0  0
  -11.1213  -23.0551   27.6659 H   0  0  0  0  0  0  0  0  0  0  0  0
   -9.5361  -23.5838   27.4017 H   0  0  0  0  0  0  0  0  0  0  0  0
  -10.5986  -26.3397   29.6957 H   0  0  0  0  0  0  0  0  0  0  0  0
  -11.4591  -28.8586   29.3948 H   0  0  0  0  0  0  0  0  0  0  0  0
  -13.1542  -30.2209   28.1168 H   0  0  0  0  0  0  0  0  0  0  0  0
  -14.3794  -29.1295   26.2373 H   0  0  0  0  0  0  0  0  0  0  0  0
  -13.7696  -26.8560   25.4638 H   0  0  0  0  0  0  0  0  0  0  0  0
  -17.5120  -26.5689   26.3395 H   0  0  0  0  0  0  0  0  0  0  0  0
  -19.0319  -26.6955   28.5325 H   0  0  0  0  0  0  0  0  0  0  0  0
  1  2  1  0
  2  3  1  0
  3  4  2  0
  3  5  1  0
  5  6  1  0
  6  7  1  0
  7  8  1  0
  8  9  1  0
  9 10  2  0
 10 11  1  0
 11 12  1  0
 12 13  2  0
 13 14  1  0
 14 15  2  0
 15 16  1  0
 16 17  2  0
  2 18  1  0
 18 19  2  0
 19 20  1  0
 20 21  2  0
 21 22  1  0
 17  9  1  0
 22 18  1  0
 16 11  1  0
  1 23  1  0
  1 24  1  0
  1 25  1  0
  5 26  1  0
  5 27  1  0
  6 28  1  0
  6 29  1  0
  8 30  1  0
  8 31  1  0
 10 32  1  0
 12 33  1  0
 13 34  1  0
 14 35  1  0
 15 36  1  0
 20 37  1  0
 21 38  1  0
M  END
>  <Energy>  (572) 
133.04560164998591

>  <compound_id>  (572) 
5581

>  <target_id>  (572) 
1

>  <reference_id>  (572) 
88

>  <inspiration_ids>  (572) 
[45, 88]

>  <energy_score>  (572) 
17.796331543962054

>  <distance_score>  (572) 
5.760591388811201

>  <path>  (572) 
/opt/xchem-fragalysis-2/maxwin/BulkDock/SCRATCH/511018/C5581-P88/C5581-P88.minimised.mol

>  <scratch_subdir>  (572) 
/opt/xchem-fragalysis-2/maxwin/BulkDock/SCRATCH/511018/C5581-P88

>  <fragmenstein_runtime>  (572) 
7.823180198669434

>  <fragmenstein_outcome>  (572) 
too moved

>  <fragmenstein_mode>  (572) 
expansion

>  <fragmenstein_error>  (572) 


$$$$
C5582-P45
     RDKit          3D

 34 36  0  0  0  0  0  0  0  0999 V2000
  -11.5386  -26.7067   25.6214 C   0  0  0  0  0  0  0  0  0  0  0  0
  -11.0330  -26.2350   26.9186 N   0  0  0  0  0  0  0  0  0  0  0  0
  -10.8157  -27.7460   27.1324 C   0  0  0  0  0  0  0  0  0  0  0  0
   -9.4727  -28.3700   26.6470 C   0  0  0  0  0  0  0  0  0  0  0  0
   -8.2194  -27.5576   26.7901 C   0  0  0  0  0  0  0  0  0  0  0  0
   -8.1320  -26.2588   26.9774 N   0  0  0  0  0  0  0  0  0  0  0  0
   -6.8061  -25.8661   26.9855 C   0  0  0  0  0  0  0  0  0  0  0  0
   -5.8871  -26.8762   26.8083 C   0  0  0  0  0  0  0  0  0  0  0  0
   -6.7129  -28.3483   26.5619 S   0  0  0  0  0  0  0  0  0  0  0  0
  -11.7102  -25.6798   28.0222 C   0  0  0  0  0  0  0  0  0  0  0  0
  -12.8802  -25.5335   28.2200 O   0  0  0  0  0  0  0  0  0  0  0  0
  -10.7943  -25.2735   29.0737 C   0  0  0  0  0  0  0  0  0  0  0  0
   -9.7008  -25.9383   29.5842 C   0  0  0  0  0  0  0  0  0  0  0  0
   -9.3654  -25.5202   30.8378 N   0  0  0  0  0  0  0  0  0  0  0  0
  -10.2075  -24.5594   31.1007 C   0  0  0  0  0  0  0  0  0  0  0  0
  -10.4911  -23.8633   32.3130 C   0  0  0  0  0  0  0  0  0  0  0  0
  -11.2909  -22.7805   32.2732 C   0  0  0  0  0  0  0  0  0  0  0  0
  -11.8821  -22.3372   31.0194 C   0  0  0  0  0  0  0  0  0  0  0  0
  -11.7555  -23.0874   29.9124 C   0  0  0  0  0  0  0  0  0  0  0  0
  -10.9580  -24.2255   29.9590 N   0  0  0  0  0  0  0  0  0  0  0  0
  -10.8736  -27.2584   24.9647 H   0  0  0  0  0  0  0  0  0  0  0  0
  -12.5505  -27.1374   25.6833 H   0  0  0  0  0  0  0  0  0  0  0  0
  -11.7256  -25.7675   25.0815 H   0  0  0  0  0  0  0  0  0  0  0  0
  -11.6840  -28.3980   26.9227 H   0  0  0  0  0  0  0  0  0  0  0  0
  -10.7844  -27.8778   28.2228 H   0  0  0  0  0  0  0  0  0  0  0  0
   -9.3504  -29.3170   27.1870 H   0  0  0  0  0  0  0  0  0  0  0  0
   -9.5532  -28.6657   25.5968 H   0  0  0  0  0  0  0  0  0  0  0  0
   -6.5605  -24.8213   27.1321 H   0  0  0  0  0  0  0  0  0  0  0  0
   -4.8071  -26.8116   26.7728 H   0  0  0  0  0  0  0  0  0  0  0  0
   -9.2143  -26.8044   29.1740 H   0  0  0  0  0  0  0  0  0  0  0  0
  -10.0628  -24.2377   33.2342 H   0  0  0  0  0  0  0  0  0  0  0  0
  -11.5572  -22.2543   33.1855 H   0  0  0  0  0  0  0  0  0  0  0  0
  -12.5240  -21.4800   31.0437 H   0  0  0  0  0  0  0  0  0  0  0  0
  -12.2588  -22.8714   28.9789 H   0  0  0  0  0  0  0  0  0  0  0  0
  1  2  1  0
  2  3  1  0
  3  4  1  0
  4  5  1  0
  5  6  2  0
  6  7  1  0
  7  8  2  0
  8  9  1  0
  2 10  1  0
 10 11  2  0
 10 12  1  0
 12 13  2  0
 13 14  1  0
 14 15  2  0
 15 16  1  0
 16 17  2  0
 17 18  1  0
 18 19  2  0
 19 20  1  0
  9  5  1  0
 20 12  1  0
 20 15  1  0
  1 21  1  0
  1 22  1  0
  1 23  1  0
  3 24  1  0
  3 25  1  0
  4 26  1  0
  4 27  1  0
  7 28  1  0
  8 29  1  0
 13 30  1  0
 16 31  1  0
 17 32  1  0
 18 33  1  0
 19 34  1  0
M  END
>  <Energy>  (573) 
90.36839887728155

>  <compound_id>  (573) 
5582

>  <target_id>  (573) 
1

>  <reference_id>  (573) 
45

>  <inspiration_ids>  (573) 
[45, 88]

>  <energy_score>  (573) 
9.53878720466139

>  <distance_score>  (573) 
3.3363304985059345

>  <path>  (573) 
/opt/xchem-fragalysis-2/maxwin/BulkDock/SCRATCH/511018/C5582-P45/C5582-P45.minimised.mol

>  <scratch_subdir>  (573) 
/opt/xchem-fragalysis-2/maxwin/BulkDock/SCRATCH/511018/C5582-P45

>  <fragmenstein_runtime>  (573) 
11.02715277671814

>  <fragmenstein_outcome>  (573) 
too moved

>  <fragmenstein_mode>  (573) 
expansion

>  <fragmenstein_error>  (573) 


$$$$
C5582-P88
     RDKit          3D

 34 36  0  0  0  0  0  0  0  0999 V2000
  -11.9780  -25.0332   26.6597 C   0  0  0  0  0  0  0  0  0  0  0  0
  -11.5980  -24.3231   27.9087 N   0  0  0  0  0  0  0  0  0  0  0  0
  -10.9612  -25.6788   28.2223 C   0  0  0  0  0  0  0  0  0  0  0  0
  -11.9002  -26.6962   28.9526 C   0  0  0  0  0  0  0  0  0  0  0  0
  -11.4368  -28.1153   28.9071 C   0  0  0  0  0  0  0  0  0  0  0  0
  -10.4560  -28.5688   28.1621 N   0  0  0  0  0  0  0  0  0  0  0  0
  -10.3183  -29.9318   28.3251 C   0  0  0  0  0  0  0  0  0  0  0  0
  -11.2221  -30.5121   29.1808 C   0  0  0  0  0  0  0  0  0  0  0  0
  -12.2446  -29.3091   29.8425 S   0  0  0  0  0  0  0  0  0  0  0  0
  -12.3832  -23.8895   29.0010 C   0  0  0  0  0  0  0  0  0  0  0  0
  -13.5465  -24.0634   29.2423 O   0  0  0  0  0  0  0  0  0  0  0  0
  -11.6199  -23.0260   29.8762 C   0  0  0  0  0  0  0  0  0  0  0  0
  -11.5568  -21.6515   29.7242 C   0  0  0  0  0  0  0  0  0  0  0  0
  -11.0808  -21.0314   30.8383 N   0  0  0  0  0  0  0  0  0  0  0  0
  -10.7165  -22.0111   31.6319 C   0  0  0  0  0  0  0  0  0  0  0  0
  -10.0675  -21.9660   32.8954 C   0  0  0  0  0  0  0  0  0  0  0  0
   -9.5485  -23.0866   33.4245 C   0  0  0  0  0  0  0  0  0  0  0  0
   -9.6883  -24.3620   32.7524 C   0  0  0  0  0  0  0  0  0  0  0  0
  -10.4007  -24.4267   31.6139 C   0  0  0  0  0  0  0  0  0  0  0  0
  -10.9237  -23.2617   31.0468 N   0  0  0  0  0  0  0  0  0  0  0  0
  -11.1356  -25.1697   25.9685 H   0  0  0  0  0  0  0  0  0  0  0  0
  -12.6551  -25.8915   26.7298 H   0  0  0  0  0  0  0  0  0  0  0  0
  -12.6106  -24.2914   26.1495 H   0  0  0  0  0  0  0  0  0  0  0  0
  -10.1974  -25.4059   28.9614 H   0  0  0  0  0  0  0  0  0  0  0  0
  -10.3182  -26.1147   27.4413 H   0  0  0  0  0  0  0  0  0  0  0  0
  -12.0172  -26.3987   29.9998 H   0  0  0  0  0  0  0  0  0  0  0  0
  -12.9153  -26.6766   28.5395 H   0  0  0  0  0  0  0  0  0  0  0  0
   -9.5471  -30.4514   27.7697 H   0  0  0  0  0  0  0  0  0  0  0  0
  -11.3185  -31.5531   29.4549 H   0  0  0  0  0  0  0  0  0  0  0  0
  -11.8947  -21.0771   28.8747 H   0  0  0  0  0  0  0  0  0  0  0  0
   -9.9774  -21.0064   33.3867 H   0  0  0  0  0  0  0  0  0  0  0  0
   -9.0167  -23.0547   34.3693 H   0  0  0  0  0  0  0  0  0  0  0  0
   -9.2216  -25.2361   33.1912 H   0  0  0  0  0  0  0  0  0  0  0  0
  -10.5425  -25.3557   31.0961 H   0  0  0  0  0  0  0  0  0  0  0  0
  1  2  1  0
  2  3  1  0
  3  4  1  0
  4  5  1  0
  5  6  2  0
  6  7  1  0
  7  8  2  0
  8  9  1  0
  2 10  1  0
 10 11  2  0
 10 12  1  0
 12 13  2  0
 13 14  1  0
 14 15  2  0
 15 16  1  0
 16 17  2  0
 17 18  1  0
 18 19  2  0
 19 20  1  0
  9  5  1  0
 20 12  1  0
 20 15  1  0
  1 21  1  0
  1 22  1  0
  1 23  1  0
  3 24  1  0
  3 25  1  0
  4 26  1  0
  4 27  1  0
  7 28  1  0
  8 29  1  0
 13 30  1  0
 16 31  1  0
 17 32  1  0
 18 33  1  0
 19 34  1  0
M  END
>  <Energy>  (574) 
86.381473624564279

>  <compound_id>  (574) 
5582

>  <target_id>  (574) 
1

>  <reference_id>  (574) 
88

>  <inspiration_ids>  (574) 
[45, 88]

>  <energy_score>  (574) 
5.551861951943749

>  <distance_score>  (574) 
3.938552928981805

>  <path>  (574) 
/opt/xchem-fragalysis-2/maxwin/BulkDock/SCRATCH/511018/C5582-P88/C5582-P88.minimised.mol

>  <scratch_subdir>  (574) 
/opt/xchem-fragalysis-2/maxwin/BulkDock/SCRATCH/511018/C5582-P88

>  <fragmenstein_runtime>  (574) 
11.639482259750366

>  <fragmenstein_outcome>  (574) 
too moved

>  <fragmenstein_mode>  (574) 
expansion

>  <fragmenstein_error>  (574) 


$$$$
C5583-P45
     RDKit          3D

 34 36  0  0  0  0  0  0  0  0999 V2000
  -12.5704  -26.7677   25.4908 C   0  0  0  0  0  0  0  0  0  0  0  0
  -11.6216  -27.6784   26.2834 C   0  0  0  0  0  0  0  0  0  0  0  0
  -10.9836  -26.8501   27.3374 N   0  0  0  0  0  0  0  0  0  0  0  0
  -10.2620  -28.1494   27.6203 C   0  0  0  0  0  0  0  0  0  0  0  0
   -8.9115  -28.3034   26.9763 C   0  0  0  0  0  0  0  0  0  0  0  0
   -7.8605  -27.5472   27.2239 N   0  0  0  0  0  0  0  0  0  0  0  0
   -6.7663  -28.0338   26.5485 C   0  0  0  0  0  0  0  0  0  0  0  0
   -7.0023  -29.1850   25.8416 C   0  0  0  0  0  0  0  0  0  0  0  0
   -8.6275  -29.6644   25.9813 S   0  0  0  0  0  0  0  0  0  0  0  0
  -11.5056  -26.3182   28.5343 C   0  0  0  0  0  0  0  0  0  0  0  0
  -12.5729  -26.4729   29.0534 O   0  0  0  0  0  0  0  0  0  0  0  0
  -10.5229  -25.3770   29.0761 C   0  0  0  0  0  0  0  0  0  0  0  0
   -9.3402  -25.0112   28.4380 C   0  0  0  0  0  0  0  0  0  0  0  0
   -9.5498  -23.7952   27.8482 N   0  0  0  0  0  0  0  0  0  0  0  0
  -10.6532  -23.3614   28.4139 C   0  0  0  0  0  0  0  0  0  0  0  0
  -11.4132  -22.2012   28.2989 C   0  0  0  0  0  0  0  0  0  0  0  0
  -11.9555  -21.6915   29.4153 C   0  0  0  0  0  0  0  0  0  0  0  0
  -11.7782  -22.2992   30.7145 C   0  0  0  0  0  0  0  0  0  0  0  0
  -11.2791  -23.5445   30.7362 C   0  0  0  0  0  0  0  0  0  0  0  0
  -10.9090  -24.1342   29.5246 N   0  0  0  0  0  0  0  0  0  0  0  0
  -13.4541  -26.5457   26.0858 H   0  0  0  0  0  0  0  0  0  0  0  0
  -12.9114  -27.2642   24.5784 H   0  0  0  0  0  0  0  0  0  0  0  0
  -12.0885  -25.8243   25.2145 H   0  0  0  0  0  0  0  0  0  0  0  0
  -12.2900  -28.4588   26.6771 H   0  0  0  0  0  0  0  0  0  0  0  0
  -10.9075  -27.9963   25.5199 H   0  0  0  0  0  0  0  0  0  0  0  0
  -10.8462  -29.0810   27.7300 H   0  0  0  0  0  0  0  0  0  0  0  0
   -9.9670  -28.0027   28.6677 H   0  0  0  0  0  0  0  0  0  0  0  0
   -5.8167  -27.5132   26.5993 H   0  0  0  0  0  0  0  0  0  0  0  0
   -6.3249  -29.7583   25.2355 H   0  0  0  0  0  0  0  0  0  0  0  0
   -8.5336  -25.6239   28.0771 H   0  0  0  0  0  0  0  0  0  0  0  0
  -11.5119  -21.7568   27.3216 H   0  0  0  0  0  0  0  0  0  0  0  0
  -12.5173  -20.7846   29.3291 H   0  0  0  0  0  0  0  0  0  0  0  0
  -12.0303  -21.7596   31.6200 H   0  0  0  0  0  0  0  0  0  0  0  0
  -11.0465  -24.0432   31.6682 H   0  0  0  0  0  0  0  0  0  0  0  0
  1  2  1  0
  2  3  1  0
  3  4  1  0
  4  5  1  0
  5  6  2  0
  6  7  1  0
  7  8  2  0
  8  9  1  0
  3 10  1  0
 10 11  2  0
 10 12  1  0
 12 13  2  0
 13 14  1  0
 14 15  2  0
 15 16  1  0
 16 17  2  0
 17 18  1  0
 18 19  2  0
 19 20  1  0
  9  5  1  0
 20 12  1  0
 20 15  1  0
  1 21  1  0
  1 22  1  0
  1 23  1  0
  2 24  1  0
  2 25  1  0
  4 26  1  0
  4 27  1  0
  7 28  1  0
  8 29  1  0
 13 30  1  0
 16 31  1  0
 17 32  1  0
 18 33  1  0
 19 34  1  0
M  END
>  <Energy>  (575) 
132.91517014404096

>  <compound_id>  (575) 
5583

>  <target_id>  (575) 
1

>  <reference_id>  (575) 
45

>  <inspiration_ids>  (575) 
[45, 88]

>  <energy_score>  (575) 
74.53572082471692

>  <distance_score>  (575) 
2.846665487070509

>  <path>  (575) 
/opt/xchem-fragalysis-2/maxwin/BulkDock/SCRATCH/511018/C5583-P45/C5583-P45.minimised.mol

>  <scratch_subdir>  (575) 
/opt/xchem-fragalysis-2/maxwin/BulkDock/SCRATCH/511018/C5583-P45

>  <fragmenstein_runtime>  (575) 
11.911181211471558

>  <fragmenstein_outcome>  (575) 
too moved

>  <fragmenstein_mode>  (575) 
expansion

>  <fragmenstein_error>  (575) 


$$$$
C5583-P88
     RDKit          3D

 34 36  0  0  0  0  0  0  0  0999 V2000
  -13.8816  -26.1669   26.1772 C   0  0  0  0  0  0  0  0  0  0  0  0
  -13.3464  -27.0110   27.3461 C   0  0  0  0  0  0  0  0  0  0  0  0
  -12.3782  -26.1305   28.0906 N   0  0  0  0  0  0  0  0  0  0  0  0
  -12.2814  -27.4258   28.9604 C   0  0  0  0  0  0  0  0  0  0  0  0
  -11.2573  -28.4764   28.4862 C   0  0  0  0  0  0  0  0  0  0  0  0
  -10.0275  -28.2401   28.0819 N   0  0  0  0  0  0  0  0  0  0  0  0
   -9.3083  -29.4058   27.8117 C   0  0  0  0  0  0  0  0  0  0  0  0
  -10.1021  -30.5184   27.7391 C   0  0  0  0  0  0  0  0  0  0  0  0
  -11.6988  -30.1267   28.2535 S   0  0  0  0  0  0  0  0  0  0  0  0
  -12.6201  -24.9050   28.9546 C   0  0  0  0  0  0  0  0  0  0  0  0
  -13.6266  -24.4090   29.3057 O   0  0  0  0  0  0  0  0  0  0  0  0
  -11.3419  -24.3656   29.3856 C   0  0  0  0  0  0  0  0  0  0  0  0
  -10.0949  -24.6336   28.8619 C   0  0  0  0  0  0  0  0  0  0  0  0
   -9.0950  -24.2108   29.6889 N   0  0  0  0  0  0  0  0  0  0  0  0
   -9.7020  -23.6454   30.7007 C   0  0  0  0  0  0  0  0  0  0  0  0
   -9.1962  -23.1243   31.9257 C   0  0  0  0  0  0  0  0  0  0  0  0
   -9.9862  -22.3764   32.7157 C   0  0  0  0  0  0  0  0  0  0  0  0
  -11.3444  -22.0785   32.3287 C   0  0  0  0  0  0  0  0  0  0  0  0
  -11.8421  -22.6578   31.2222 C   0  0  0  0  0  0  0  0  0  0  0  0
  -11.0601  -23.5101   30.4462 N   0  0  0  0  0  0  0  0  0  0  0  0
  -14.4116  -25.2795   26.5392 H   0  0  0  0  0  0  0  0  0  0  0  0
  -14.5744  -26.7543   25.5668 H   0  0  0  0  0  0  0  0  0  0  0  0
  -13.0589  -25.8296   25.5432 H   0  0  0  0  0  0  0  0  0  0  0  0
  -14.2621  -27.2368   27.9151 H   0  0  0  0  0  0  0  0  0  0  0  0
  -12.9082  -27.8825   26.8516 H   0  0  0  0  0  0  0  0  0  0  0  0
  -11.8107  -27.0616   29.8891 H   0  0  0  0  0  0  0  0  0  0  0  0
  -13.2186  -27.8356   29.3741 H   0  0  0  0  0  0  0  0  0  0  0  0
   -8.2661  -29.3351   27.5437 H   0  0  0  0  0  0  0  0  0  0  0  0
   -9.8441  -31.5214   27.4333 H   0  0  0  0  0  0  0  0  0  0  0  0
   -9.8715  -25.2142   27.9762 H   0  0  0  0  0  0  0  0  0  0  0  0
   -8.1650  -23.3212   32.1939 H   0  0  0  0  0  0  0  0  0  0  0  0
   -9.6141  -21.9574   33.6441 H   0  0  0  0  0  0  0  0  0  0  0  0
  -11.9485  -21.4182   32.9437 H   0  0  0  0  0  0  0  0  0  0  0  0
  -12.8526  -22.4740   30.8857 H   0  0  0  0  0  0  0  0  0  0  0  0
  1  2  1  0
  2  3  1  0
  3  4  1  0
  4  5  1  0
  5  6  2  0
  6  7  1  0
  7  8  2  0
  8  9  1  0
  3 10  1  0
 10 11  2  0
 10 12  1  0
 12 13  2  0
 13 14  1  0
 14 15  2  0
 15 16  1  0
 16 17  2  0
 17 18  1  0
 18 19  2  0
 19 20  1  0
  9  5  1  0
 20 12  1  0
 20 15  1  0
  1 21  1  0
  1 22  1  0
  1 23  1  0
  2 24  1  0
  2 25  1  0
  4 26  1  0
  4 27  1  0
  7 28  1  0
  8 29  1  0
 13 30  1  0
 16 31  1  0
 17 32  1  0
 18 33  1  0
 19 34  1  0
M  END
>  <Energy>  (576) 
93.447701454255935

>  <compound_id>  (576) 
5583

>  <target_id>  (576) 
1

>  <reference_id>  (576) 
88

>  <inspiration_ids>  (576) 
[45, 88]

>  <energy_score>  (576) 
24.218742879278693

>  <distance_score>  (576) 
3.309941685984979

>  <path>  (576) 
/opt/xchem-fragalysis-2/maxwin/BulkDock/SCRATCH/511018/C5583-P88/C5583-P88.minimised.mol

>  <scratch_subdir>  (576) 
/opt/xchem-fragalysis-2/maxwin/BulkDock/SCRATCH/511018/C5583-P88

>  <fragmenstein_runtime>  (576) 
8.112903118133545

>  <fragmenstein_outcome>  (576) 
too moved

>  <fragmenstein_mode>  (576) 
expansion

>  <fragmenstein_error>  (576) 


$$$$
C5584-P45
     RDKit          3D

 34 36  0  0  0  0  0  0  0  0999 V2000
  -10.5208  -28.3582   26.9607 C   0  0  0  0  0  0  0  0  0  0  0  0
  -10.5326  -27.0060   27.5623 N   0  0  0  0  0  0  0  0  0  0  0  0
   -9.0399  -27.1234   27.2111 C   0  0  0  0  0  0  0  0  0  0  0  0
   -8.5049  -25.7177   26.9461 C   0  0  0  0  0  0  0  0  0  0  0  0
   -7.0548  -25.5332   27.1313 C   0  0  0  0  0  0  0  0  0  0  0  0
   -6.5931  -24.4031   27.6169 N   0  0  0  0  0  0  0  0  0  0  0  0
   -5.2312  -24.4694   27.6700 C   0  0  0  0  0  0  0  0  0  0  0  0
   -4.6662  -25.6285   27.1899 C   0  0  0  0  0  0  0  0  0  0  0  0
   -5.8918  -26.7506   26.8080 S   0  0  0  0  0  0  0  0  0  0  0  0
  -10.7232  -26.5710   28.9845 C   0  0  0  0  0  0  0  0  0  0  0  0
  -10.8283  -27.2064   29.9643 O   0  0  0  0  0  0  0  0  0  0  0  0
  -10.8888  -25.1231   29.0779 C   0  0  0  0  0  0  0  0  0  0  0  0
  -11.3931  -24.1756   28.1914 C   0  0  0  0  0  0  0  0  0  0  0  0
  -11.7872  -24.3809   26.5412 Cl  0  0  0  0  0  0  0  0  0  0  0  0
  -11.6718  -22.9875   28.8259 N   0  0  0  0  0  0  0  0  0  0  0  0
  -11.3788  -23.1999   30.0837 C   0  0  0  0  0  0  0  0  0  0  0  0
  -11.6323  -22.4315   31.2535 C   0  0  0  0  0  0  0  0  0  0  0  0
  -11.1892  -22.8531   32.4539 C   0  0  0  0  0  0  0  0  0  0  0  0
  -10.3349  -24.0242   32.5716 C   0  0  0  0  0  0  0  0  0  0  0  0
  -10.0649  -24.7510   31.4716 C   0  0  0  0  0  0  0  0  0  0  0  0
  -10.6753  -24.3935   30.2404 N   0  0  0  0  0  0  0  0  0  0  0  0
   -9.9016  -29.1203   27.4560 H   0  0  0  0  0  0  0  0  0  0  0  0
  -11.5401  -28.7224   27.1549 H   0  0  0  0  0  0  0  0  0  0  0  0
  -10.4535  -28.3234   25.8659 H   0  0  0  0  0  0  0  0  0  0  0  0
   -8.7044  -27.7008   26.3305 H   0  0  0  0  0  0  0  0  0  0  0  0
   -8.5344  -27.5295   28.1007 H   0  0  0  0  0  0  0  0  0  0  0  0
   -8.9462  -25.0009   27.6354 H   0  0  0  0  0  0  0  0  0  0  0  0
   -8.8044  -25.3579   25.9593 H   0  0  0  0  0  0  0  0  0  0  0  0
   -4.6878  -23.6340   28.0735 H   0  0  0  0  0  0  0  0  0  0  0  0
   -3.6207  -25.8872   27.0979 H   0  0  0  0  0  0  0  0  0  0  0  0
  -12.2599  -21.5597   31.1655 H   0  0  0  0  0  0  0  0  0  0  0  0
  -11.4666  -22.3299   33.3642 H   0  0  0  0  0  0  0  0  0  0  0  0
   -9.9675  -24.3387   33.5369 H   0  0  0  0  0  0  0  0  0  0  0  0
   -9.4913  -25.6714   31.5111 H   0  0  0  0  0  0  0  0  0  0  0  0
  1  2  1  0
  2  3  1  0
  3  4  1  0
  4  5  1  0
  5  6  2  0
  6  7  1  0
  7  8  2  0
  8  9  1  0
  2 10  1  0
 10 11  2  0
 10 12  1  0
 12 13  2  0
 13 14  1  0
 13 15  1  0
 15 16  2  0
 16 17  1  0
 17 18  2  0
 18 19  1  0
 19 20  2  0
 20 21  1  0
  9  5  1  0
 21 12  1  0
 21 16  1  0
  1 22  1  0
  1 23  1  0
  1 24  1  0
  3 25  1  0
  3 26  1  0
  4 27  1  0
  4 28  1  0
  7 29  1  0
  8 30  1  0
 17 31  1  0
 18 32  1  0
 19 33  1  0
 20 34  1  0
M  END
>  <Energy>  (577) 
78.481956142620476

>  <compound_id>  (577) 
5584

>  <target_id>  (577) 
1

>  <reference_id>  (577) 
45

>  <inspiration_ids>  (577) 
[45, 88]

>  <energy_score>  (577) 
23.34522170689297

>  <distance_score>  (577) 
2.1667348124841745

>  <path>  (577) 
/opt/xchem-fragalysis-2/maxwin/BulkDock/SCRATCH/511018/C5584-P45/C5584-P45.minimised.mol

>  <scratch_subdir>  (577) 
/opt/xchem-fragalysis-2/maxwin/BulkDock/SCRATCH/511018/C5584-P45

>  <fragmenstein_runtime>  (577) 
9.380232572555542

>  <fragmenstein_outcome>  (577) 
too moved

>  <fragmenstein_mode>  (577) 
expansion

>  <fragmenstein_error>  (577) 


$$$$
C5584-P88
     RDKit          3D

 34 36  0  0  0  0  0  0  0  0999 V2000
  -14.5734  -29.5855   30.0671 C   0  0  0  0  0  0  0  0  0  0  0  0
  -13.7449  -28.4239   29.6428 N   0  0  0  0  0  0  0  0  0  0  0  0
  -12.6462  -29.4950   29.6255 C   0  0  0  0  0  0  0  0  0  0  0  0
  -12.4695  -30.1934   28.2614 C   0  0  0  0  0  0  0  0  0  0  0  0
  -11.0323  -30.3673   27.9041 C   0  0  0  0  0  0  0  0  0  0  0  0
  -10.1450  -29.4029   28.0129 N   0  0  0  0  0  0  0  0  0  0  0  0
   -8.9618  -29.7941   27.4214 C   0  0  0  0  0  0  0  0  0  0  0  0
   -8.9614  -31.0532   26.8625 C   0  0  0  0  0  0  0  0  0  0  0  0
  -10.4706  -31.8201   27.1740 S   0  0  0  0  0  0  0  0  0  0  0  0
  -13.3064  -27.2903   30.3631 C   0  0  0  0  0  0  0  0  0  0  0  0
  -13.4139  -27.0168   31.5274 O   0  0  0  0  0  0  0  0  0  0  0  0
  -12.6716  -26.3189   29.4847 C   0  0  0  0  0  0  0  0  0  0  0  0
  -12.9198  -25.9559   28.1697 C   0  0  0  0  0  0  0  0  0  0  0  0
  -14.0797  -26.6028   27.0958 Cl  0  0  0  0  0  0  0  0  0  0  0  0
  -12.1316  -24.9023   27.7756 N   0  0  0  0  0  0  0  0  0  0  0  0
  -11.3834  -24.6176   28.8141 C   0  0  0  0  0  0  0  0  0  0  0  0
  -10.3586  -23.6482   28.9934 C   0  0  0  0  0  0  0  0  0  0  0  0
   -9.6681  -23.6176   30.1483 C   0  0  0  0  0  0  0  0  0  0  0  0
   -9.9688  -24.5048   31.2482 C   0  0  0  0  0  0  0  0  0  0  0  0
  -10.9392  -25.4128   31.0801 C   0  0  0  0  0  0  0  0  0  0  0  0
  -11.6494  -25.4686   29.8782 N   0  0  0  0  0  0  0  0  0  0  0  0
  -15.5803  -29.1492   30.1471 H   0  0  0  0  0  0  0  0  0  0  0  0
  -14.7052  -30.3862   29.3298 H   0  0  0  0  0  0  0  0  0  0  0  0
  -14.3865  -29.9210   31.0984 H   0  0  0  0  0  0  0  0  0  0  0  0
  -12.5648  -30.1835   30.4865 H   0  0  0  0  0  0  0  0  0  0  0  0
  -11.7313  -28.9040   29.7885 H   0  0  0  0  0  0  0  0  0  0  0  0
  -12.9422  -29.5969   27.4719 H   0  0  0  0  0  0  0  0  0  0  0  0
  -12.9821  -31.1622   28.2750 H   0  0  0  0  0  0  0  0  0  0  0  0
   -8.1574  -29.0764   27.3674 H   0  0  0  0  0  0  0  0  0  0  0  0
   -8.1718  -31.5426   26.3099 H   0  0  0  0  0  0  0  0  0  0  0  0
  -10.1312  -22.9764   28.1723 H   0  0  0  0  0  0  0  0  0  0  0  0
   -8.8337  -22.9479   30.2851 H   0  0  0  0  0  0  0  0  0  0  0  0
   -9.3832  -24.4378   32.1587 H   0  0  0  0  0  0  0  0  0  0  0  0
  -11.1830  -26.1373   31.8404 H   0  0  0  0  0  0  0  0  0  0  0  0
  1  2  1  0
  2  3  1  0
  3  4  1  0
  4  5  1  0
  5  6  2  0
  6  7  1  0
  7  8  2  0
  8  9  1  0
  2 10  1  0
 10 11  2  0
 10 12  1  0
 12 13  2  0
 13 14  1  0
 13 15  1  0
 15 16  2  0
 16 17  1  0
 17 18  2  0
 18 19  1  0
 19 20  2  0
 20 21  1  0
  9  5  1  0
 21 12  1  0
 21 16  1  0
  1 22  1  0
  1 23  1  0
  1 24  1  0
  3 25  1  0
  3 26  1  0
  4 27  1  0
  4 28  1  0
  7 29  1  0
  8 30  1  0
 17 31  1  0
 18 32  1  0
 19 33  1  0
 20 34  1  0
M  END
>  <Energy>  (578) 
56.869845073613298

>  <compound_id>  (578) 
5584

>  <target_id>  (578) 
1

>  <reference_id>  (578) 
88

>  <inspiration_ids>  (578) 
[45, 88]

>  <energy_score>  (578) 
-10.790676480644436

>  <distance_score>  (578) 
4.837161268780168

>  <path>  (578) 
/opt/xchem-fragalysis-2/maxwin/BulkDock/SCRATCH/511018/C5584-P88/C5584-P88.minimised.mol

>  <scratch_subdir>  (578) 
/opt/xchem-fragalysis-2/maxwin/BulkDock/SCRATCH/511018/C5584-P88

>  <fragmenstein_runtime>  (578) 
15.733205080032349

>  <fragmenstein_outcome>  (578) 
too moved

>  <fragmenstein_mode>  (578) 
expansion

>  <fragmenstein_error>  (578) 


$$$$
C5585-P45
     RDKit          3D

 37 39  0  0  0  0  0  0  0  0999 V2000
  -14.1101  -27.6696   26.8634 C   0  0  0  0  0  0  0  0  0  0  0  0
  -12.7646  -28.1192   27.4294 C   0  0  0  0  0  0  0  0  0  0  0  0
  -11.8687  -26.9504   27.6931 N   0  0  0  0  0  0  0  0  0  0  0  0
  -10.8592  -28.0949   28.0508 C   0  0  0  0  0  0  0  0  0  0  0  0
   -9.5430  -28.2242   27.2854 C   0  0  0  0  0  0  0  0  0  0  0  0
   -8.4898  -27.4662   27.5001 N   0  0  0  0  0  0  0  0  0  0  0  0
   -7.4065  -27.8877   26.7634 C   0  0  0  0  0  0  0  0  0  0  0  0
   -7.6078  -29.0568   26.0773 C   0  0  0  0  0  0  0  0  0  0  0  0
   -9.2095  -29.5983   26.3155 S   0  0  0  0  0  0  0  0  0  0  0  0
  -11.2626  -26.0197   26.7967 C   0  0  0  0  0  0  0  0  0  0  0  0
  -11.2455  -25.9917   25.5967 O   0  0  0  0  0  0  0  0  0  0  0  0
  -10.5008  -25.0561   27.5686 C   0  0  0  0  0  0  0  0  0  0  0  0
   -9.1406  -24.8226   27.4159 C   0  0  0  0  0  0  0  0  0  0  0  0
   -8.5273  -24.8617   28.6562 N   0  0  0  0  0  0  0  0  0  0  0  0
   -9.5255  -24.9938   29.5098 C   0  0  0  0  0  0  0  0  0  0  0  0
   -9.5727  -25.0317   30.9295 C   0  0  0  0  0  0  0  0  0  0  0  0
  -10.4414  -24.1948   31.5461 C   0  0  0  0  0  0  0  0  0  0  0  0
  -10.4332  -24.0481   33.0302 C   0  0  0  0  0  0  0  0  0  0  0  0
  -11.4073  -23.4069   30.7408 C   0  0  0  0  0  0  0  0  0  0  0  0
  -11.5924  -23.7388   29.4461 C   0  0  0  0  0  0  0  0  0  0  0  0
  -10.6885  -24.6190   28.8576 N   0  0  0  0  0  0  0  0  0  0  0  0
  -14.6799  -27.1293   27.6243 H   0  0  0  0  0  0  0  0  0  0  0  0
  -13.9837  -27.0388   25.9786 H   0  0  0  0  0  0  0  0  0  0  0  0
  -14.7048  -28.5425   26.5731 H   0  0  0  0  0  0  0  0  0  0  0  0
  -13.0350  -28.6423   28.3609 H   0  0  0  0  0  0  0  0  0  0  0  0
  -12.3701  -28.7718   26.6482 H   0  0  0  0  0  0  0  0  0  0  0  0
  -10.5315  -27.7185   29.0352 H   0  0  0  0  0  0  0  0  0  0  0  0
  -11.2073  -29.1027   28.3473 H   0  0  0  0  0  0  0  0  0  0  0  0
   -6.4845  -27.3187   26.7804 H   0  0  0  0  0  0  0  0  0  0  0  0
   -6.9102  -29.6040   25.4617 H   0  0  0  0  0  0  0  0  0  0  0  0
   -8.5459  -24.9354   26.5175 H   0  0  0  0  0  0  0  0  0  0  0  0
   -8.8304  -25.5968   31.4827 H   0  0  0  0  0  0  0  0  0  0  0  0
   -9.3977  -23.9659   33.3725 H   0  0  0  0  0  0  0  0  0  0  0  0
  -10.8830  -24.9107   33.5286 H   0  0  0  0  0  0  0  0  0  0  0  0
  -10.9763  -23.1530   33.3459 H   0  0  0  0  0  0  0  0  0  0  0  0
  -11.9700  -22.6079   31.2098 H   0  0  0  0  0  0  0  0  0  0  0  0
  -12.3113  -23.2649   28.7941 H   0  0  0  0  0  0  0  0  0  0  0  0
  1  2  1  0
  2  3  1  0
  3  4  1  0
  4  5  1  0
  5  6  2  0
  6  7  1  0
  7  8  2  0
  8  9  1  0
  3 10  1  0
 10 11  2  0
 10 12  1  0
 12 13  2  0
 13 14  1  0
 14 15  2  0
 15 16  1  0
 16 17  2  0
 17 18  1  0
 17 19  1  0
 19 20  2  0
 20 21  1  0
  9  5  1  0
 21 12  1  0
 21 15  1  0
  1 22  1  0
  1 23  1  0
  1 24  1  0
  2 25  1  0
  2 26  1  0
  4 27  1  0
  4 28  1  0
  7 29  1  0
  8 30  1  0
 13 31  1  0
 16 32  1  0
 18 33  1  0
 18 34  1  0
 18 35  1  0
 19 36  1  0
 20 37  1  0
M  END
>  <Energy>  (579) 
131.86806964744255

>  <compound_id>  (579) 
5585

>  <target_id>  (579) 
1

>  <reference_id>  (579) 
45

>  <inspiration_ids>  (579) 
[45, 88]

>  <energy_score>  (579) 
54.319885791388344

>  <distance_score>  (579) 
3.2302743609232825

>  <path>  (579) 
/opt/xchem-fragalysis-2/maxwin/BulkDock/SCRATCH/511018/C5585-P45/C5585-P45.minimised.mol

>  <scratch_subdir>  (579) 
/opt/xchem-fragalysis-2/maxwin/BulkDock/SCRATCH/511018/C5585-P45

>  <fragmenstein_runtime>  (579) 
13.680990219116211

>  <fragmenstein_outcome>  (579) 
too moved

>  <fragmenstein_mode>  (579) 
expansion

>  <fragmenstein_error>  (579) 


$$$$
C5585-P88
     RDKit          3D

 37 39  0  0  0  0  0  0  0  0999 V2000
  -15.8372  -25.1293   25.9276 C   0  0  0  0  0  0  0  0  0  0  0  0
  -15.5490  -24.6460   27.3612 C   0  0  0  0  0  0  0  0  0  0  0  0
  -14.1368  -24.5843   27.8978 N   0  0  0  0  0  0  0  0  0  0  0  0
  -14.2677  -26.1053   27.7945 C   0  0  0  0  0  0  0  0  0  0  0  0
  -13.3015  -26.7709   28.7499 C   0  0  0  0  0  0  0  0  0  0  0  0
  -13.1192  -26.4294   30.0104 N   0  0  0  0  0  0  0  0  0  0  0  0
  -12.1000  -27.1883   30.5324 C   0  0  0  0  0  0  0  0  0  0  0  0
  -11.5907  -28.1433   29.6867 C   0  0  0  0  0  0  0  0  0  0  0  0
  -12.4033  -28.1267   28.2000 S   0  0  0  0  0  0  0  0  0  0  0  0
  -12.9249  -24.1500   27.2809 C   0  0  0  0  0  0  0  0  0  0  0  0
  -12.7058  -23.8090   26.1525 O   0  0  0  0  0  0  0  0  0  0  0  0
  -11.7711  -24.2356   28.1605 C   0  0  0  0  0  0  0  0  0  0  0  0
  -10.6343  -24.9422   27.8200 C   0  0  0  0  0  0  0  0  0  0  0  0
   -9.7072  -24.9480   28.8105 N   0  0  0  0  0  0  0  0  0  0  0  0
  -10.2216  -24.2067   29.7602 C   0  0  0  0  0  0  0  0  0  0  0  0
   -9.6945  -23.8748   31.0378 C   0  0  0  0  0  0  0  0  0  0  0  0
  -10.3277  -22.9913   31.8330 C   0  0  0  0  0  0  0  0  0  0  0  0
   -9.8028  -22.5928   33.1781 C   0  0  0  0  0  0  0  0  0  0  0  0
  -11.5801  -22.3925   31.3914 C   0  0  0  0  0  0  0  0  0  0  0  0
  -12.1180  -22.7663   30.2157 C   0  0  0  0  0  0  0  0  0  0  0  0
  -11.4636  -23.6823   29.3970 N   0  0  0  0  0  0  0  0  0  0  0  0
  -16.7655  -24.6771   25.5624 H   0  0  0  0  0  0  0  0  0  0  0  0
  -15.0233  -24.8471   25.2568 H   0  0  0  0  0  0  0  0  0  0  0  0
  -15.9733  -26.2141   25.8698 H   0  0  0  0  0  0  0  0  0  0  0  0
  -15.7668  -23.5798   27.2559 H   0  0  0  0  0  0  0  0  0  0  0  0
  -16.2868  -24.9787   28.1084 H   0  0  0  0  0  0  0  0  0  0  0  0
  -15.2181  -26.5677   28.1168 H   0  0  0  0  0  0  0  0  0  0  0  0
  -13.9843  -26.4286   26.7806 H   0  0  0  0  0  0  0  0  0  0  0  0
  -11.7632  -27.0020   31.5437 H   0  0  0  0  0  0  0  0  0  0  0  0
  -10.7939  -28.8356   29.8582 H   0  0  0  0  0  0  0  0  0  0  0  0
  -10.4841  -25.4914   26.9007 H   0  0  0  0  0  0  0  0  0  0  0  0
   -8.7710  -24.3479   31.3407 H   0  0  0  0  0  0  0  0  0  0  0  0
   -9.5739  -21.5222   33.1959 H   0  0  0  0  0  0  0  0  0  0  0  0
   -8.8857  -23.1331   33.4368 H   0  0  0  0  0  0  0  0  0  0  0  0
  -10.5414  -22.7990   33.9587 H   0  0  0  0  0  0  0  0  0  0  0  0
  -12.0962  -21.6935   32.0444 H   0  0  0  0  0  0  0  0  0  0  0  0
  -13.0650  -22.3856   29.8922 H   0  0  0  0  0  0  0  0  0  0  0  0
  1  2  1  0
  2  3  1  0
  3  4  1  0
  4  5  1  0
  5  6  2  0
  6  7  1  0
  7  8  2  0
  8  9  1  0
  3 10  1  0
 10 11  2  0
 10 12  1  0
 12 13  2  0
 13 14  1  0
 14 15  2  0
 15 16  1  0
 16 17  2  0
 17 18  1  0
 17 19  1  0
 19 20  2  0
 20 21  1  0
  9  5  1  0
 21 12  1  0
 21 15  1  0
  1 22  1  0
  1 23  1  0
  1 24  1  0
  2 25  1  0
  2 26  1  0
  4 27  1  0
  4 28  1  0
  7 29  1  0
  8 30  1  0
 13 31  1  0
 16 32  1  0
 18 33  1  0
 18 34  1  0
 18 35  1  0
 19 36  1  0
 20 37  1  0
M  END
>  <Energy>  (580) 
88.07601564970885

>  <compound_id>  (580) 
5585

>  <target_id>  (580) 
1

>  <reference_id>  (580) 
88

>  <inspiration_ids>  (580) 
[45, 88]

>  <energy_score>  (580) 
10.527831793659061

>  <distance_score>  (580) 
4.535839167233175

>  <path>  (580) 
/opt/xchem-fragalysis-2/maxwin/BulkDock/SCRATCH/511018/C5585-P88/C5585-P88.minimised.mol

>  <scratch_subdir>  (580) 
/opt/xchem-fragalysis-2/maxwin/BulkDock/SCRATCH/511018/C5585-P88

>  <fragmenstein_runtime>  (580) 
18.22023105621338

>  <fragmenstein_outcome>  (580) 
too moved

>  <fragmenstein_mode>  (580) 
expansion

>  <fragmenstein_error>  (580) 


$$$$
C5586-P45
     RDKit          3D

 40 43  0  0  0  0  0  0  0  0999 V2000
   -8.9745  -24.3628   32.9912 O   0  0  0  0  0  0  0  0  0  0  0  0
   -9.8149  -24.3022   32.1813 C   0  0  0  0  0  0  0  0  0  0  0  0
   -9.8449  -24.8342   30.7127 N   0  0  0  0  0  0  0  0  0  0  0  0
   -8.9227  -25.5961   30.0132 C   0  0  0  0  0  0  0  0  0  0  0  0
   -8.4722  -25.3459   28.5459 C   0  0  0  0  0  0  0  0  0  0  0  0
   -7.7985  -24.2257   28.1881 C   0  0  0  0  0  0  0  0  0  0  0  0
   -6.6214  -24.2304   27.3216 C   0  0  0  0  0  0  0  0  0  0  0  0
   -6.1662  -25.3952   26.8588 C   0  0  0  0  0  0  0  0  0  0  0  0
   -6.9809  -26.4931   27.0080 N   0  0  0  0  0  0  0  0  0  0  0  0
   -6.7838  -27.7646   26.5795 C   0  0  0  0  0  0  0  0  0  0  0  0
   -7.9739  -28.3992   26.8315 C   0  0  0  0  0  0  0  0  0  0  0  0
   -8.8349  -27.6066   27.5454 N   0  0  0  0  0  0  0  0  0  0  0  0
   -8.1998  -26.4710   27.6866 C   0  0  0  0  0  0  0  0  0  0  0  0
  -11.1849  -23.6728   32.4069 C   0  0  0  0  0  0  0  0  0  0  0  0
  -11.5638  -22.7882   33.5778 C   0  0  0  0  0  0  0  0  0  0  0  0
  -11.5829  -21.4026   33.0237 C   0  0  0  0  0  0  0  0  0  0  0  0
  -12.1945  -21.6549   31.6753 C   0  0  0  0  0  0  0  0  0  0  0  0
  -11.8649  -23.0031   31.2597 N   0  0  0  0  0  0  0  0  0  0  0  0
  -11.8894  -23.1850   29.8963 C   0  0  0  0  0  0  0  0  0  0  0  0
  -11.7068  -22.1985   29.0499 N   0  0  0  0  0  0  0  0  0  0  0  0
  -11.6032  -22.6660   27.7615 C   0  0  0  0  0  0  0  0  0  0  0  0
  -11.7270  -24.0183   27.5831 C   0  0  0  0  0  0  0  0  0  0  0  0
  -12.1007  -24.7313   29.0767 S   0  0  0  0  0  0  0  0  0  0  0  0
  -10.7382  -24.6869   30.3270 H   0  0  0  0  0  0  0  0  0  0  0  0
   -9.3187  -26.6157   30.1003 H   0  0  0  0  0  0  0  0  0  0  0  0
   -8.0790  -25.4198   30.6683 H   0  0  0  0  0  0  0  0  0  0  0  0
   -7.8490  -23.3203   28.7598 H   0  0  0  0  0  0  0  0  0  0  0  0
   -6.0440  -23.3164   27.2335 H   0  0  0  0  0  0  0  0  0  0  0  0
   -5.2219  -25.5169   26.3482 H   0  0  0  0  0  0  0  0  0  0  0  0
   -5.8849  -28.0851   26.0732 H   0  0  0  0  0  0  0  0  0  0  0  0
   -8.2380  -29.4167   26.5645 H   0  0  0  0  0  0  0  0  0  0  0  0
  -11.6283  -24.5582   32.8056 H   0  0  0  0  0  0  0  0  0  0  0  0
  -11.0038  -22.9899   34.4518 H   0  0  0  0  0  0  0  0  0  0  0  0
  -12.5865  -22.9919   33.9202 H   0  0  0  0  0  0  0  0  0  0  0  0
  -12.1730  -20.7105   33.6313 H   0  0  0  0  0  0  0  0  0  0  0  0
  -10.6037  -20.9508   32.8696 H   0  0  0  0  0  0  0  0  0  0  0  0
  -11.7624  -20.9560   30.9770 H   0  0  0  0  0  0  0  0  0  0  0  0
  -13.2837  -21.5721   31.7307 H   0  0  0  0  0  0  0  0  0  0  0  0
  -11.4486  -21.9597   26.9623 H   0  0  0  0  0  0  0  0  0  0  0  0
  -11.6739  -24.5818   26.6632 H   0  0  0  0  0  0  0  0  0  0  0  0
  1  2  2  0
  2  3  1  0
  3  4  1  0
  4  5  1  0
  5  6  2  0
  6  7  1  0
  7  8  2  0
  8  9  1  0
  9 10  1  0
 10 11  2  0
 11 12  1  0
 12 13  2  0
  2 14  1  0
 14 15  1  0
 15 16  1  0
 16 17  1  0
 17 18  1  0
 18 19  1  0
 19 20  2  0
 20 21  1  0
 21 22  2  0
 22 23  1  0
 13  5  1  0
 18 14  1  0
 23 19  1  0
 13  9  1  0
  3 24  1  0
  4 25  1  0
  4 26  1  0
  6 27  1  0
  7 28  1  0
  8 29  1  0
 10 30  1  0
 11 31  1  0
 14 32  1  0
 15 33  1  0
 15 34  1  0
 16 35  1  0
 16 36  1  0
 17 37  1  0
 17 38  1  0
 21 39  1  0
 22 40  1  0
M  END
>  <Energy>  (581) 
108.69886136564732

>  <compound_id>  (581) 
5586

>  <target_id>  (581) 
1

>  <reference_id>  (581) 
45

>  <inspiration_ids>  (581) 
[45, 88]

>  <energy_score>  (581) 
37.6830790268458

>  <distance_score>  (581) 
2.697082561683748

>  <path>  (581) 
/opt/xchem-fragalysis-2/maxwin/BulkDock/SCRATCH/511018/C5586-P45/C5586-P45.minimised.mol

>  <scratch_subdir>  (581) 
/opt/xchem-fragalysis-2/maxwin/BulkDock/SCRATCH/511018/C5586-P45

>  <fragmenstein_runtime>  (581) 
8.80704379081726

>  <fragmenstein_outcome>  (581) 
too moved

>  <fragmenstein_mode>  (581) 
expansion

>  <fragmenstein_error>  (581) 


$$$$
C5586-P88
     RDKit          3D

 40 43  0  0  0  0  0  0  0  0999 V2000
  -12.1075  -27.1582   31.8457 O   0  0  0  0  0  0  0  0  0  0  0  0
  -11.5359  -26.6546   30.9526 C   0  0  0  0  0  0  0  0  0  0  0  0
  -11.1420  -27.2251   29.5556 N   0  0  0  0  0  0  0  0  0  0  0  0
  -11.4555  -28.5030   28.9346 C   0  0  0  0  0  0  0  0  0  0  0  0
  -10.3500  -29.3965   28.3076 C   0  0  0  0  0  0  0  0  0  0  0  0
  -10.7345  -30.6750   28.0442 C   0  0  0  0  0  0  0  0  0  0  0  0
   -9.9639  -31.6410   27.2701 C   0  0  0  0  0  0  0  0  0  0  0  0
   -8.8501  -31.2442   26.6479 C   0  0  0  0  0  0  0  0  0  0  0  0
   -8.4990  -29.9243   26.7766 N   0  0  0  0  0  0  0  0  0  0  0  0
   -7.6780  -29.2217   25.9416 C   0  0  0  0  0  0  0  0  0  0  0  0
   -7.5559  -28.0591   26.6542 C   0  0  0  0  0  0  0  0  0  0  0  0
   -8.6497  -27.8114   27.3815 N   0  0  0  0  0  0  0  0  0  0  0  0
   -9.1073  -29.0178   27.6542 C   0  0  0  0  0  0  0  0  0  0  0  0
  -11.0047  -25.1816   31.1844 C   0  0  0  0  0  0  0  0  0  0  0  0
   -9.9296  -25.0087   32.2842 C   0  0  0  0  0  0  0  0  0  0  0  0
   -9.7112  -23.5130   32.2548 C   0  0  0  0  0  0  0  0  0  0  0  0
   -9.7274  -23.2370   30.7511 C   0  0  0  0  0  0  0  0  0  0  0  0
  -10.4535  -24.3660   30.1095 N   0  0  0  0  0  0  0  0  0  0  0  0
  -11.1638  -24.0036   29.0080 C   0  0  0  0  0  0  0  0  0  0  0  0
  -10.7720  -23.0320   28.2142 N   0  0  0  0  0  0  0  0  0  0  0  0
  -11.5959  -22.9388   27.1202 C   0  0  0  0  0  0  0  0  0  0  0  0
  -12.6259  -23.8428   27.0687 C   0  0  0  0  0  0  0  0  0  0  0  0
  -12.6260  -24.7679   28.4902 S   0  0  0  0  0  0  0  0  0  0  0  0
  -10.5773  -26.5406   29.0555 H   0  0  0  0  0  0  0  0  0  0  0  0
  -11.9952  -29.0791   29.6962 H   0  0  0  0  0  0  0  0  0  0  0  0
  -12.1771  -28.2631   28.1443 H   0  0  0  0  0  0  0  0  0  0  0  0
  -11.7012  -31.0399   28.3904 H   0  0  0  0  0  0  0  0  0  0  0  0
  -10.3318  -32.6592   27.1884 H   0  0  0  0  0  0  0  0  0  0  0  0
   -8.2626  -31.8761   25.9941 H   0  0  0  0  0  0  0  0  0  0  0  0
   -7.0631  -29.6999   25.1924 H   0  0  0  0  0  0  0  0  0  0  0  0
   -6.6884  -27.4410   26.6496 H   0  0  0  0  0  0  0  0  0  0  0  0
  -11.8835  -24.6324   31.5150 H   0  0  0  0  0  0  0  0  0  0  0  0
   -8.9900  -25.4835   32.0030 H   0  0  0  0  0  0  0  0  0  0  0  0
  -10.1936  -25.3893   33.2685 H   0  0  0  0  0  0  0  0  0  0  0  0
  -10.5368  -22.9908   32.7524 H   0  0  0  0  0  0  0  0  0  0  0  0
   -8.7735  -23.2036   32.7251 H   0  0  0  0  0  0  0  0  0  0  0  0
   -8.7097  -23.2091   30.3504 H   0  0  0  0  0  0  0  0  0  0  0  0
  -10.2305  -22.2787   30.5828 H   0  0  0  0  0  0  0  0  0  0  0  0
  -11.4166  -22.1837   26.3710 H   0  0  0  0  0  0  0  0  0  0  0  0
  -13.3841  -23.9443   26.3074 H   0  0  0  0  0  0  0  0  0  0  0  0
  1  2  2  0
  2  3  1  0
  3  4  1  0
  4  5  1  0
  5  6  2  0
  6  7  1  0
  7  8  2  0
  8  9  1  0
  9 10  1  0
 10 11  2  0
 11 12  1  0
 12 13  2  0
  2 14  1  0
 14 15  1  0
 15 16  1  0
 16 17  1  0
 17 18  1  0
 18 19  1  0
 19 20  2  0
 20 21  1  0
 21 22  2  0
 22 23  1  0
 13  5  1  0
 18 14  1  0
 23 19  1  0
 13  9  1  0
  3 24  1  0
  4 25  1  0
  4 26  1  0
  6 27  1  0
  7 28  1  0
  8 29  1  0
 10 30  1  0
 11 31  1  0
 14 32  1  0
 15 33  1  0
 15 34  1  0
 16 35  1  0
 16 36  1  0
 17 37  1  0
 17 38  1  0
 21 39  1  0
 22 40  1  0
M  END
>  <Energy>  (582) 
74.054143979717225

>  <compound_id>  (582) 
5586

>  <target_id>  (582) 
1

>  <reference_id>  (582) 
88

>  <inspiration_ids>  (582) 
[45, 88]

>  <energy_score>  (582) 
3.0383616409212664

>  <distance_score>  (582) 
3.375902332287636

>  <path>  (582) 
/opt/xchem-fragalysis-2/maxwin/BulkDock/SCRATCH/511018/C5586-P88/C5586-P88.minimised.mol

>  <scratch_subdir>  (582) 
/opt/xchem-fragalysis-2/maxwin/BulkDock/SCRATCH/511018/C5586-P88

>  <fragmenstein_runtime>  (582) 
4.270824432373047

>  <fragmenstein_outcome>  (582) 
too moved

>  <fragmenstein_mode>  (582) 
expansion

>  <fragmenstein_error>  (582) 


$$$$
C5587-P45
     RDKit          3D

 43 46  0  0  0  0  0  0  0  0999 V2000
  -12.5572  -25.5144   28.2738 O   0  0  0  0  0  0  0  0  0  0  0  0
  -11.4455  -25.2001   28.4018 C   0  0  0  0  0  0  0  0  0  0  0  0
  -10.1737  -25.7250   27.7090 N   0  0  0  0  0  0  0  0  0  0  0  0
   -9.9973  -26.7935   26.7987 C   0  0  0  0  0  0  0  0  0  0  0  0
   -8.5008  -27.0646   26.7801 C   0  0  0  0  0  0  0  0  0  0  0  0
   -8.0656  -28.3147   26.5046 C   0  0  0  0  0  0  0  0  0  0  0  0
   -6.6602  -28.6256   26.3519 C   0  0  0  0  0  0  0  0  0  0  0  0
   -5.7308  -27.6852   26.5783 C   0  0  0  0  0  0  0  0  0  0  0  0
   -6.1521  -26.4057   26.8977 N   0  0  0  0  0  0  0  0  0  0  0  0
   -5.4147  -25.2770   27.1566 C   0  0  0  0  0  0  0  0  0  0  0  0
   -6.3285  -24.2902   27.4389 C   0  0  0  0  0  0  0  0  0  0  0  0
   -7.6090  -24.7806   27.3787 N   0  0  0  0  0  0  0  0  0  0  0  0
   -7.4889  -26.0476   27.0114 C   0  0  0  0  0  0  0  0  0  0  0  0
  -10.8550  -24.1943   29.4136 C   0  0  0  0  0  0  0  0  0  0  0  0
   -9.9801  -25.0765   30.3512 C   0  0  0  0  0  0  0  0  0  0  0  0
   -9.8882  -24.7443   31.8243 C   0  0  0  0  0  0  0  0  0  0  0  0
  -10.7843  -23.6626   32.3716 C   0  0  0  0  0  0  0  0  0  0  0  0
  -11.4504  -22.7511   31.4095 N   0  0  0  0  0  0  0  0  0  0  0  0
  -12.4089  -21.9611   32.0418 C   0  0  0  0  0  0  0  0  0  0  0  0
  -13.6486  -21.8732   31.5975 N   0  0  0  0  0  0  0  0  0  0  0  0
  -14.5273  -21.5053   32.6083 C   0  0  0  0  0  0  0  0  0  0  0  0
  -13.9340  -21.1355   33.7897 C   0  0  0  0  0  0  0  0  0  0  0  0
  -12.2378  -21.2637   33.6292 S   0  0  0  0  0  0  0  0  0  0  0  0
  -11.8922  -23.3280   30.1011 C   0  0  0  0  0  0  0  0  0  0  0  0
   -9.3720  -25.1659   27.9997 H   0  0  0  0  0  0  0  0  0  0  0  0
  -10.4036  -26.4673   25.8411 H   0  0  0  0  0  0  0  0  0  0  0  0
  -10.5782  -27.6513   27.1518 H   0  0  0  0  0  0  0  0  0  0  0  0
   -8.7619  -29.1265   26.3049 H   0  0  0  0  0  0  0  0  0  0  0  0
   -6.4148  -29.6120   25.9840 H   0  0  0  0  0  0  0  0  0  0  0  0
   -4.6669  -27.8461   26.4589 H   0  0  0  0  0  0  0  0  0  0  0  0
   -4.3355  -25.2951   27.1273 H   0  0  0  0  0  0  0  0  0  0  0  0
   -6.1304  -23.2582   27.6991 H   0  0  0  0  0  0  0  0  0  0  0  0
  -10.2236  -23.5149   28.8260 H   0  0  0  0  0  0  0  0  0  0  0  0
   -8.9524  -25.0830   29.9660 H   0  0  0  0  0  0  0  0  0  0  0  0
  -10.2775  -26.1331   30.2801 H   0  0  0  0  0  0  0  0  0  0  0  0
  -10.0556  -25.6627   32.4047 H   0  0  0  0  0  0  0  0  0  0  0  0
   -8.8506  -24.5327   32.0890 H   0  0  0  0  0  0  0  0  0  0  0  0
  -10.1602  -23.0778   33.0448 H   0  0  0  0  0  0  0  0  0  0  0  0
  -11.4975  -24.1215   33.0598 H   0  0  0  0  0  0  0  0  0  0  0  0
  -15.5919  -21.5324   32.4147 H   0  0  0  0  0  0  0  0  0  0  0  0
  -14.3972  -20.8050   34.7071 H   0  0  0  0  0  0  0  0  0  0  0  0
  -12.7995  -23.9116   30.2248 H   0  0  0  0  0  0  0  0  0  0  0  0
  -12.1528  -22.5018   29.4253 H   0  0  0  0  0  0  0  0  0  0  0  0
  1  2  2  0
  2  3  1  0
  3  4  1  0
  4  5  1  0
  5  6  2  0
  6  7  1  0
  7  8  2  0
  8  9  1  0
  9 10  1  0
 10 11  2  0
 11 12  1  0
 12 13  2  0
  2 14  1  0
 14 15  1  0
 15 16  1  0
 16 17  1  0
 17 18  1  0
 18 19  1  0
 19 20  2  0
 20 21  1  0
 21 22  2  0
 22 23  1  0
 18 24  1  0
 13  5  1  0
 24 14  1  0
 13  9  1  0
 23 19  1  0
  3 25  1  0
  4 26  1  0
  4 27  1  0
  6 28  1  0
  7 29  1  0
  8 30  1  0
 10 31  1  0
 11 32  1  0
 14 33  1  0
 15 34  1  0
 15 35  1  0
 16 36  1  0
 16 37  1  0
 17 38  1  0
 17 39  1  0
 21 40  1  0
 22 41  1  0
 24 42  1  0
 24 43  1  0
M  END
>  <Energy>  (583) 
21.17753978940539

>  <compound_id>  (583) 
5587

>  <target_id>  (583) 
1

>  <reference_id>  (583) 
45

>  <inspiration_ids>  (583) 
[45, 88]

>  <energy_score>  (583) 
-35.11390956104509

>  <distance_score>  (583) 
1.5058208128350041

>  <path>  (583) 
/opt/xchem-fragalysis-2/maxwin/BulkDock/SCRATCH/511018/C5587-P45/C5587-P45.minimised.mol

>  <scratch_subdir>  (583) 
/opt/xchem-fragalysis-2/maxwin/BulkDock/SCRATCH/511018/C5587-P45

>  <fragmenstein_runtime>  (583) 
6.473368883132935

>  <fragmenstein_outcome>  (583) 
too moved

>  <fragmenstein_mode>  (583) 
expansion

>  <fragmenstein_error>  (583) 


$$$$
C5587-P88
     RDKit          3D

 43 46  0  0  0  0  0  0  0  0999 V2000
  -13.2053  -27.0373   27.6410 O   0  0  0  0  0  0  0  0  0  0  0  0
  -12.2068  -27.1667   28.2419 C   0  0  0  0  0  0  0  0  0  0  0  0
  -11.3875  -28.4697   28.5929 N   0  0  0  0  0  0  0  0  0  0  0  0
  -11.5927  -29.8475   28.1885 C   0  0  0  0  0  0  0  0  0  0  0  0
  -10.2651  -30.4388   27.6405 C   0  0  0  0  0  0  0  0  0  0  0  0
  -10.2160  -31.7183   27.1926 C   0  0  0  0  0  0  0  0  0  0  0  0
   -9.0910  -32.2587   26.4163 C   0  0  0  0  0  0  0  0  0  0  0  0
   -8.1414  -31.4272   25.9658 C   0  0  0  0  0  0  0  0  0  0  0  0
   -8.2064  -30.1171   26.3769 N   0  0  0  0  0  0  0  0  0  0  0  0
   -7.5425  -29.0332   25.8876 C   0  0  0  0  0  0  0  0  0  0  0  0
   -7.8386  -28.0578   26.8124 C   0  0  0  0  0  0  0  0  0  0  0  0
   -8.8896  -28.3923   27.5846 N   0  0  0  0  0  0  0  0  0  0  0  0
   -9.0961  -29.6566   27.3381 C   0  0  0  0  0  0  0  0  0  0  0  0
  -11.4104  -26.0057   28.9017 C   0  0  0  0  0  0  0  0  0  0  0  0
  -11.4926  -26.1885   30.4232 C   0  0  0  0  0  0  0  0  0  0  0  0
  -10.5923  -25.2289   31.2037 C   0  0  0  0  0  0  0  0  0  0  0  0
   -9.8277  -24.3179   30.2693 C   0  0  0  0  0  0  0  0  0  0  0  0
  -10.8104  -23.6482   29.4311 N   0  0  0  0  0  0  0  0  0  0  0  0
  -11.2322  -22.4297   29.8704 C   0  0  0  0  0  0  0  0  0  0  0  0
  -11.4835  -21.4321   29.0660 N   0  0  0  0  0  0  0  0  0  0  0  0
  -11.4723  -20.2603   29.7806 C   0  0  0  0  0  0  0  0  0  0  0  0
  -11.4098  -20.3521   31.1467 C   0  0  0  0  0  0  0  0  0  0  0  0
  -11.3083  -21.9840   31.5648 S   0  0  0  0  0  0  0  0  0  0  0  0
  -11.7202  -24.5081   28.6111 C   0  0  0  0  0  0  0  0  0  0  0  0
  -10.5260  -28.2140   29.0564 H   0  0  0  0  0  0  0  0  0  0  0  0
  -12.3861  -29.8760   27.4372 H   0  0  0  0  0  0  0  0  0  0  0  0
  -11.9167  -30.4008   29.0742 H   0  0  0  0  0  0  0  0  0  0  0  0
  -11.0699  -32.3808   27.3157 H   0  0  0  0  0  0  0  0  0  0  0  0
   -9.1099  -33.3068   26.1336 H   0  0  0  0  0  0  0  0  0  0  0  0
   -7.3431  -31.7179   25.2942 H   0  0  0  0  0  0  0  0  0  0  0  0
   -6.7921  -29.1222   25.1153 H   0  0  0  0  0  0  0  0  0  0  0  0
   -7.3710  -27.1166   26.9457 H   0  0  0  0  0  0  0  0  0  0  0  0
  -10.3977  -26.1493   28.5218 H   0  0  0  0  0  0  0  0  0  0  0  0
  -11.3268  -27.2166   30.7425 H   0  0  0  0  0  0  0  0  0  0  0  0
  -12.5320  -26.0272   30.7048 H   0  0  0  0  0  0  0  0  0  0  0  0
  -11.2290  -24.6385   31.8560 H   0  0  0  0  0  0  0  0  0  0  0  0
   -9.9127  -25.7394   31.8845 H   0  0  0  0  0  0  0  0  0  0  0  0
   -9.1208  -24.8668   29.6412 H   0  0  0  0  0  0  0  0  0  0  0  0
   -9.1932  -23.6204   30.8309 H   0  0  0  0  0  0  0  0  0  0  0  0
  -11.5594  -19.3410   29.2407 H   0  0  0  0  0  0  0  0  0  0  0  0
  -11.4181  -19.5681   31.8885 H   0  0  0  0  0  0  0  0  0  0  0  0
  -12.7706  -24.2936   28.8449 H   0  0  0  0  0  0  0  0  0  0  0  0
  -11.5650  -24.2914   27.5483 H   0  0  0  0  0  0  0  0  0  0  0  0
  1  2  2  0
  2  3  1  0
  3  4  1  0
  4  5  1  0
  5  6  2  0
  6  7  1  0
  7  8  2  0
  8  9  1  0
  9 10  1  0
 10 11  2  0
 11 12  1  0
 12 13  2  0
  2 14  1  0
 14 15  1  0
 15 16  1  0
 16 17  1  0
 17 18  1  0
 18 19  1  0
 19 20  2  0
 20 21  1  0
 21 22  2  0
 22 23  1  0
 18 24  1  0
 13  5  1  0
 24 14  1  0
 13  9  1  0
 23 19  1  0
  3 25  1  0
  4 26  1  0
  4 27  1  0
  6 28  1  0
  7 29  1  0
  8 30  1  0
 10 31  1  0
 11 32  1  0
 14 33  1  0
 15 34  1  0
 15 35  1  0
 16 36  1  0
 16 37  1  0
 17 38  1  0
 17 39  1  0
 21 40  1  0
 22 41  1  0
 24 42  1  0
 24 43  1  0
M  END
>  <Energy>  (584) 
34.680864395626038

>  <compound_id>  (584) 
5587

>  <target_id>  (584) 
1

>  <reference_id>  (584) 
88

>  <inspiration_ids>  (584) 
[45, 88]

>  <energy_score>  (584) 
-21.610584954823935

>  <distance_score>  (584) 
3.4492802078705243

>  <path>  (584) 
/opt/xchem-fragalysis-2/maxwin/BulkDock/SCRATCH/511018/C5587-P88/C5587-P88.minimised.mol

>  <scratch_subdir>  (584) 
/opt/xchem-fragalysis-2/maxwin/BulkDock/SCRATCH/511018/C5587-P88

>  <fragmenstein_runtime>  (584) 
6.359635591506958

>  <fragmenstein_outcome>  (584) 
too moved

>  <fragmenstein_mode>  (584) 
expansion

>  <fragmenstein_error>  (584) 


$$$$
C5590-P45
     RDKit          3D

 35 38  0  0  0  0  0  0  0  0999 V2000
  -12.4437  -25.2032   27.1342 O   0  0  0  0  0  0  0  0  0  0  0  0
  -11.4898  -25.4662   27.7695 C   0  0  0  0  0  0  0  0  0  0  0  0
  -11.1173  -24.6008   28.8862 C   0  0  0  0  0  0  0  0  0  0  0  0
  -11.5325  -23.2939   29.0543 C   0  0  0  0  0  0  0  0  0  0  0  0
  -11.3541  -23.0431   30.3840 N   0  0  0  0  0  0  0  0  0  0  0  0
  -11.7932  -21.9783   31.1454 C   0  0  0  0  0  0  0  0  0  0  0  0
  -11.6700  -21.9937   32.4792 C   0  0  0  0  0  0  0  0  0  0  0  0
  -11.0808  -23.1717   33.0795 C   0  0  0  0  0  0  0  0  0  0  0  0
  -10.4785  -24.1264   32.3466 C   0  0  0  0  0  0  0  0  0  0  0  0
  -10.6631  -24.1136   30.9275 C   0  0  0  0  0  0  0  0  0  0  0  0
  -10.5005  -25.0667   30.0369 N   0  0  0  0  0  0  0  0  0  0  0  0
  -10.5747  -26.6548   27.7018 N   0  0  0  0  0  0  0  0  0  0  0  0
   -9.3803  -26.4006   26.7044 C   0  0  0  0  0  0  0  0  0  0  0  0
   -8.2284  -25.5557   27.2325 C   0  0  0  0  0  0  0  0  0  0  0  0
   -8.2922  -24.3086   27.6496 N   0  0  0  0  0  0  0  0  0  0  0  0
   -7.0188  -23.7781   27.7544 C   0  0  0  0  0  0  0  0  0  0  0  0
   -5.9834  -24.6197   27.4268 C   0  0  0  0  0  0  0  0  0  0  0  0
   -6.6138  -26.1370   26.9636 S   0  0  0  0  0  0  0  0  0  0  0  0
  -10.6573  -27.9062   26.8790 C   0  0  0  0  0  0  0  0  0  0  0  0
   -9.8851  -29.1829   27.0833 C   0  0  0  0  0  0  0  0  0  0  0  0
  -11.2451  -29.0610   27.6847 C   0  0  0  0  0  0  0  0  0  0  0  0
  -12.0640  -22.6243   28.3944 H   0  0  0  0  0  0  0  0  0  0  0  0
  -12.2562  -21.2093   30.5710 H   0  0  0  0  0  0  0  0  0  0  0  0
  -12.0315  -21.1985   33.1205 H   0  0  0  0  0  0  0  0  0  0  0  0
  -11.2013  -23.2927   34.1484 H   0  0  0  0  0  0  0  0  0  0  0  0
  -10.0496  -25.0111   32.8079 H   0  0  0  0  0  0  0  0  0  0  0  0
   -9.8252  -25.7804   25.9112 H   0  0  0  0  0  0  0  0  0  0  0  0
   -8.8628  -27.2750   26.2840 H   0  0  0  0  0  0  0  0  0  0  0  0
   -6.9014  -22.7507   28.0666 H   0  0  0  0  0  0  0  0  0  0  0  0
   -4.9208  -24.4315   27.4522 H   0  0  0  0  0  0  0  0  0  0  0  0
  -11.1798  -27.7527   25.9294 H   0  0  0  0  0  0  0  0  0  0  0  0
   -9.7415  -29.8433   26.2363 H   0  0  0  0  0  0  0  0  0  0  0  0
   -8.9832  -29.0897   27.6670 H   0  0  0  0  0  0  0  0  0  0  0  0
  -11.3452  -28.9186   28.7553 H   0  0  0  0  0  0  0  0  0  0  0  0
  -12.0712  -29.6191   27.2696 H   0  0  0  0  0  0  0  0  0  0  0  0
  1  2  2  0
  2  3  1  0
  3  4  2  0
  4  5  1  0
  5  6  1  0
  6  7  2  0
  7  8  1  0
  8  9  2  0
  9 10  1  0
 10 11  2  0
  2 12  1  0
 12 13  1  0
 13 14  1  0
 14 15  2  0
 15 16  1  0
 16 17  2  0
 17 18  1  0
 12 19  1  0
 19 20  1  0
 20 21  1  0
 11  3  1  0
 18 14  1  0
 21 19  1  0
 10  5  1  0
  4 22  1  0
  6 23  1  0
  7 24  1  0
  8 25  1  0
  9 26  1  0
 13 27  1  0
 13 28  1  0
 16 29  1  0
 17 30  1  0
 19 31  1  0
 20 32  1  0
 20 33  1  0
 21 34  1  0
 21 35  1  0
M  END
>  <Energy>  (585) 
164.55431086440439

>  <compound_id>  (585) 
5590

>  <target_id>  (585) 
1

>  <reference_id>  (585) 
45

>  <inspiration_ids>  (585) 
[45, 88]

>  <energy_score>  (585) 
25.210494022628666

>  <distance_score>  (585) 
1.9108745048009992

>  <path>  (585) 
/opt/xchem-fragalysis-2/maxwin/BulkDock/SCRATCH/511018/C5590-P45/C5590-P45.minimised.mol

>  <scratch_subdir>  (585) 
/opt/xchem-fragalysis-2/maxwin/BulkDock/SCRATCH/511018/C5590-P45

>  <fragmenstein_runtime>  (585) 
9.743705749511719

>  <fragmenstein_outcome>  (585) 
too moved

>  <fragmenstein_mode>  (585) 
expansion

>  <fragmenstein_error>  (585) 


$$$$
C5590-P88
     RDKit          3D

 35 38  0  0  0  0  0  0  0  0999 V2000
  -14.9626  -25.7029   29.3840 O   0  0  0  0  0  0  0  0  0  0  0  0
  -13.8327  -25.9370   29.0430 C   0  0  0  0  0  0  0  0  0  0  0  0
  -12.7424  -25.0830   29.5746 C   0  0  0  0  0  0  0  0  0  0  0  0
  -11.5984  -25.5017   30.2371 C   0  0  0  0  0  0  0  0  0  0  0  0
  -11.0475  -24.3714   30.7935 N   0  0  0  0  0  0  0  0  0  0  0  0
   -9.9737  -24.2480   31.6763 C   0  0  0  0  0  0  0  0  0  0  0  0
   -9.7182  -23.0531   32.2349 C   0  0  0  0  0  0  0  0  0  0  0  0
  -10.5763  -21.9282   31.8991 C   0  0  0  0  0  0  0  0  0  0  0  0
  -11.5638  -22.0388   30.9897 C   0  0  0  0  0  0  0  0  0  0  0  0
  -11.8425  -23.3029   30.3998 C   0  0  0  0  0  0  0  0  0  0  0  0
  -12.8264  -23.7008   29.6191 N   0  0  0  0  0  0  0  0  0  0  0  0
  -13.3045  -26.9995   28.2468 N   0  0  0  0  0  0  0  0  0  0  0  0
  -13.2840  -26.5815   26.7176 C   0  0  0  0  0  0  0  0  0  0  0  0
  -12.4296  -25.3468   26.5660 C   0  0  0  0  0  0  0  0  0  0  0  0
  -12.8788  -24.2071   26.0927 N   0  0  0  0  0  0  0  0  0  0  0  0
  -11.9166  -23.2320   26.2506 C   0  0  0  0  0  0  0  0  0  0  0  0
  -10.7489  -23.6447   26.8436 C   0  0  0  0  0  0  0  0  0  0  0  0
  -10.7978  -25.3359   27.0722 S   0  0  0  0  0  0  0  0  0  0  0  0
  -13.9714  -28.2273   27.6713 C   0  0  0  0  0  0  0  0  0  0  0  0
  -14.8826  -28.9969   28.6161 C   0  0  0  0  0  0  0  0  0  0  0  0
  -15.4547  -28.3548   27.3969 C   0  0  0  0  0  0  0  0  0  0  0  0
  -11.2093  -26.4868   30.4319 H   0  0  0  0  0  0  0  0  0  0  0  0
   -9.3934  -25.1322   31.8972 H   0  0  0  0  0  0  0  0  0  0  0  0
   -8.9002  -22.9037   32.9321 H   0  0  0  0  0  0  0  0  0  0  0  0
  -10.3989  -20.9825   32.4018 H   0  0  0  0  0  0  0  0  0  0  0  0
  -12.2092  -21.2023   30.7523 H   0  0  0  0  0  0  0  0  0  0  0  0
  -14.2971  -26.2889   26.4000 H   0  0  0  0  0  0  0  0  0  0  0  0
  -12.8555  -27.3313   26.0403 H   0  0  0  0  0  0  0  0  0  0  0  0
  -12.1258  -22.2234   25.9244 H   0  0  0  0  0  0  0  0  0  0  0  0
   -9.8952  -23.0453   27.1120 H   0  0  0  0  0  0  0  0  0  0  0  0
  -13.2603  -28.9207   27.2118 H   0  0  0  0  0  0  0  0  0  0  0  0
  -15.1344  -28.5602   29.5766 H   0  0  0  0  0  0  0  0  0  0  0  0
  -14.8066  -30.0781   28.6333 H   0  0  0  0  0  0  0  0  0  0  0  0
  -16.0957  -27.4914   27.5463 H   0  0  0  0  0  0  0  0  0  0  0  0
  -15.7703  -28.9976   26.5835 H   0  0  0  0  0  0  0  0  0  0  0  0
  1  2  2  0
  2  3  1  0
  3  4  2  0
  4  5  1  0
  5  6  1  0
  6  7  2  0
  7  8  1  0
  8  9  2  0
  9 10  1  0
 10 11  2  0
  2 12  1  0
 12 13  1  0
 13 14  1  0
 14 15  2  0
 15 16  1  0
 16 17  2  0
 17 18  1  0
 12 19  1  0
 19 20  1  0
 20 21  1  0
 11  3  1  0
 18 14  1  0
 21 19  1  0
 10  5  1  0
  4 22  1  0
  6 23  1  0
  7 24  1  0
  8 25  1  0
  9 26  1  0
 13 27  1  0
 13 28  1  0
 16 29  1  0
 17 30  1  0
 19 31  1  0
 20 32  1  0
 20 33  1  0
 21 34  1  0
 21 35  1  0
M  END
>  <Energy>  (586) 
151.68151754068995

>  <compound_id>  (586) 
5590

>  <target_id>  (586) 
1

>  <reference_id>  (586) 
88

>  <inspiration_ids>  (586) 
[45, 88]

>  <energy_score>  (586) 
-27.063385059329164

>  <distance_score>  (586) 
4.046672305158883

>  <path>  (586) 
/opt/xchem-fragalysis-2/maxwin/BulkDock/SCRATCH/511018/C5590-P88/C5590-P88.minimised.mol

>  <scratch_subdir>  (586) 
/opt/xchem-fragalysis-2/maxwin/BulkDock/SCRATCH/511018/C5590-P88

>  <fragmenstein_runtime>  (586) 
15.60766077041626

>  <fragmenstein_outcome>  (586) 
too moved

>  <fragmenstein_mode>  (586) 
expansion

>  <fragmenstein_error>  (586) 


$$$$
C5591-P45
     RDKit          3D

 35 38  0  0  0  0  0  0  0  0999 V2000
  -12.0953  -24.4519   27.9289 O   0  0  0  0  0  0  0  0  0  0  0  0
  -11.2594  -25.1672   28.3417 C   0  0  0  0  0  0  0  0  0  0  0  0
  -10.5680  -24.8604   29.6483 C   0  0  0  0  0  0  0  0  0  0  0  0
   -9.8044  -25.8164   30.2321 C   0  0  0  0  0  0  0  0  0  0  0  0
   -9.3545  -25.7535   31.6089 C   0  0  0  0  0  0  0  0  0  0  0  0
   -9.8276  -24.7872   32.3957 C   0  0  0  0  0  0  0  0  0  0  0  0
  -10.6560  -23.8273   31.8367 N   0  0  0  0  0  0  0  0  0  0  0  0
  -11.2743  -22.8018   32.4757 C   0  0  0  0  0  0  0  0  0  0  0  0
  -11.8390  -22.0618   31.4820 C   0  0  0  0  0  0  0  0  0  0  0  0
  -11.6672  -22.6319   30.2575 N   0  0  0  0  0  0  0  0  0  0  0  0
  -11.0058  -23.7534   30.4716 C   0  0  0  0  0  0  0  0  0  0  0  0
  -10.7629  -26.5020   27.8170 N   0  0  0  0  0  0  0  0  0  0  0  0
   -9.5418  -26.3055   26.7739 C   0  0  0  0  0  0  0  0  0  0  0  0
   -8.1923  -25.7644   27.2609 C   0  0  0  0  0  0  0  0  0  0  0  0
   -7.0606  -26.4244   27.0710 N   0  0  0  0  0  0  0  0  0  0  0  0
   -5.9710  -25.5668   27.1375 C   0  0  0  0  0  0  0  0  0  0  0  0
   -6.2691  -24.2823   27.5264 C   0  0  0  0  0  0  0  0  0  0  0  0
   -7.9556  -24.1363   27.7341 S   0  0  0  0  0  0  0  0  0  0  0  0
  -11.2593  -27.3546   26.6748 C   0  0  0  0  0  0  0  0  0  0  0  0
  -12.7672  -27.6082   26.7396 C   0  0  0  0  0  0  0  0  0  0  0  0
  -12.1947  -26.8384   25.6014 C   0  0  0  0  0  0  0  0  0  0  0  0
   -9.5673  -26.7578   29.7480 H   0  0  0  0  0  0  0  0  0  0  0  0
   -8.7172  -26.5334   32.0036 H   0  0  0  0  0  0  0  0  0  0  0  0
   -9.5966  -24.7243   33.4488 H   0  0  0  0  0  0  0  0  0  0  0  0
  -11.2851  -22.6990   33.5489 H   0  0  0  0  0  0  0  0  0  0  0  0
  -12.4170  -21.1788   31.6349 H   0  0  0  0  0  0  0  0  0  0  0  0
   -9.8842  -25.5910   26.0092 H   0  0  0  0  0  0  0  0  0  0  0  0
   -9.2116  -27.2704   26.3560 H   0  0  0  0  0  0  0  0  0  0  0  0
   -4.9782  -25.9523   26.9279 H   0  0  0  0  0  0  0  0  0  0  0  0
   -5.5953  -23.4552   27.6942 H   0  0  0  0  0  0  0  0  0  0  0  0
  -10.7625  -28.3280   26.5894 H   0  0  0  0  0  0  0  0  0  0  0  0
  -13.1275  -28.6127   26.5573 H   0  0  0  0  0  0  0  0  0  0  0  0
  -13.3335  -27.0871   27.5029 H   0  0  0  0  0  0  0  0  0  0  0  0
  -12.3901  -25.7722   25.5554 H   0  0  0  0  0  0  0  0  0  0  0  0
  -12.1704  -27.3271   24.6383 H   0  0  0  0  0  0  0  0  0  0  0  0
  1  2  2  0
  2  3  1  0
  3  4  2  0
  4  5  1  0
  5  6  2  0
  6  7  1  0
  7  8  1  0
  8  9  2  0
  9 10  1  0
 10 11  2  0
  2 12  1  0
 12 13  1  0
 13 14  1  0
 14 15  2  0
 15 16  1  0
 16 17  2  0
 17 18  1  0
 12 19  1  0
 19 20  1  0
 20 21  1  0
 11  3  1  0
 18 14  1  0
 21 19  1  0
 11  7  1  0
  4 22  1  0
  5 23  1  0
  6 24  1  0
  8 25  1  0
  9 26  1  0
 13 27  1  0
 13 28  1  0
 16 29  1  0
 17 30  1  0
 19 31  1  0
 20 32  1  0
 20 33  1  0
 21 34  1  0
 21 35  1  0
M  END
>  <Energy>  (587) 
152.55692461585033

>  <compound_id>  (587) 
5591

>  <target_id>  (587) 
1

>  <reference_id>  (587) 
45

>  <inspiration_ids>  (587) 
[45, 88]

>  <energy_score>  (587) 
31.850350342021613

>  <distance_score>  (587) 
2.1052175411994436

>  <path>  (587) 
/opt/xchem-fragalysis-2/maxwin/BulkDock/SCRATCH/511018/C5591-P45/C5591-P45.minimised.mol

>  <scratch_subdir>  (587) 
/opt/xchem-fragalysis-2/maxwin/BulkDock/SCRATCH/511018/C5591-P45

>  <fragmenstein_runtime>  (587) 
18.5256986618042

>  <fragmenstein_outcome>  (587) 
too moved

>  <fragmenstein_mode>  (587) 
expansion

>  <fragmenstein_error>  (587) 


$$$$
C5591-P88
     RDKit          3D

 35 38  0  0  0  0  0  0  0  0999 V2000
  -14.3342  -24.4642   29.1716 O   0  0  0  0  0  0  0  0  0  0  0  0
  -13.3069  -25.0375   29.1055 C   0  0  0  0  0  0  0  0  0  0  0  0
  -12.1580  -24.6562   30.0295 C   0  0  0  0  0  0  0  0  0  0  0  0
  -11.4890  -25.6208   30.7073 C   0  0  0  0  0  0  0  0  0  0  0  0
  -10.5144  -25.2939   31.7426 C   0  0  0  0  0  0  0  0  0  0  0  0
  -10.2655  -24.0164   32.0419 C   0  0  0  0  0  0  0  0  0  0  0  0
  -10.9551  -23.0363   31.3592 N   0  0  0  0  0  0  0  0  0  0  0  0
  -10.8661  -21.6926   31.5410 C   0  0  0  0  0  0  0  0  0  0  0  0
  -11.6743  -21.1537   30.5824 C   0  0  0  0  0  0  0  0  0  0  0  0
  -12.3115  -22.1298   29.8683 N   0  0  0  0  0  0  0  0  0  0  0  0
  -11.8873  -23.2771   30.3536 C   0  0  0  0  0  0  0  0  0  0  0  0
  -12.9057  -26.2440   28.2705 N   0  0  0  0  0  0  0  0  0  0  0  0
  -12.3168  -25.7994   26.8607 C   0  0  0  0  0  0  0  0  0  0  0  0
  -11.0190  -25.0988   27.1931 C   0  0  0  0  0  0  0  0  0  0  0  0
  -10.0512  -25.5983   27.9371 N   0  0  0  0  0  0  0  0  0  0  0  0
   -9.4366  -24.5458   28.5838 C   0  0  0  0  0  0  0  0  0  0  0  0
   -9.8046  -23.2860   28.1517 C   0  0  0  0  0  0  0  0  0  0  0  0
  -10.9103  -23.4219   26.8664 S   0  0  0  0  0  0  0  0  0  0  0  0
  -13.7273  -27.1270   27.3576 C   0  0  0  0  0  0  0  0  0  0  0  0
  -15.0163  -26.7002   26.6849 C   0  0  0  0  0  0  0  0  0  0  0  0
  -15.0815  -27.5593   27.9020 C   0  0  0  0  0  0  0  0  0  0  0  0
  -11.6964  -26.6732   30.5387 H   0  0  0  0  0  0  0  0  0  0  0  0
  -10.0643  -26.0600   32.3525 H   0  0  0  0  0  0  0  0  0  0  0  0
   -9.5832  -23.7067   32.8236 H   0  0  0  0  0  0  0  0  0  0  0  0
  -10.2423  -21.2438   32.2984 H   0  0  0  0  0  0  0  0  0  0  0  0
  -11.8304  -20.1053   30.3726 H   0  0  0  0  0  0  0  0  0  0  0  0
  -13.0074  -25.0740   26.4037 H   0  0  0  0  0  0  0  0  0  0  0  0
  -12.0687  -26.5906   26.1522 H   0  0  0  0  0  0  0  0  0  0  0  0
   -8.7101  -24.7427   29.3625 H   0  0  0  0  0  0  0  0  0  0  0  0
   -9.4722  -22.3174   28.4923 H   0  0  0  0  0  0  0  0  0  0  0  0
  -13.1801  -28.0127   27.0180 H   0  0  0  0  0  0  0  0  0  0  0  0
  -15.2673  -27.1478   25.7310 H   0  0  0  0  0  0  0  0  0  0  0  0
  -15.3490  -25.6719   26.7893 H   0  0  0  0  0  0  0  0  0  0  0  0
  -15.3741  -28.5957   27.7802 H   0  0  0  0  0  0  0  0  0  0  0  0
  -15.4457  -27.1058   28.8177 H   0  0  0  0  0  0  0  0  0  0  0  0
  1  2  2  0
  2  3  1  0
  3  4  2  0
  4  5  1  0
  5  6  2  0
  6  7  1  0
  7  8  1  0
  8  9  2  0
  9 10  1  0
 10 11  2  0
  2 12  1  0
 12 13  1  0
 13 14  1  0
 14 15  2  0
 15 16  1  0
 16 17  2  0
 17 18  1  0
 12 19  1  0
 19 20  1  0
 20 21  1  0
 11  3  1  0
 18 14  1  0
 21 19  1  0
 11  7  1  0
  4 22  1  0
  5 23  1  0
  6 24  1  0
  8 25  1  0
  9 26  1  0
 13 27  1  0
 13 28  1  0
 16 29  1  0
 17 30  1  0
 19 31  1  0
 20 32  1  0
 20 33  1  0
 21 34  1  0
 21 35  1  0
M  END
>  <Energy>  (588) 
147.83548125882791

>  <compound_id>  (588) 
5591

>  <target_id>  (588) 
1

>  <reference_id>  (588) 
88

>  <inspiration_ids>  (588) 
[45, 88]

>  <energy_score>  (588) 
27.128906985001095

>  <distance_score>  (588) 
3.546946428084661

>  <path>  (588) 
/opt/xchem-fragalysis-2/maxwin/BulkDock/SCRATCH/511018/C5591-P88/C5591-P88.minimised.mol

>  <scratch_subdir>  (588) 
/opt/xchem-fragalysis-2/maxwin/BulkDock/SCRATCH/511018/C5591-P88

>  <fragmenstein_runtime>  (588) 
13.689536571502686

>  <fragmenstein_outcome>  (588) 
too moved

>  <fragmenstein_mode>  (588) 
expansion

>  <fragmenstein_error>  (588) 


$$$$
C5594-P45
     RDKit          3D

 37 40  0  0  0  0  0  0  0  0999 V2000
   -9.1743  -25.4789   30.1022 O   0  0  0  0  0  0  0  0  0  0  0  0
  -10.2600  -25.6854   29.7304 C   0  0  0  0  0  0  0  0  0  0  0  0
  -10.7819  -26.7671   28.8944 N   0  0  0  0  0  0  0  0  0  0  0  0
  -10.1523  -27.7517   28.2549 C   0  0  0  0  0  0  0  0  0  0  0  0
   -8.8688  -27.5428   27.8050 C   0  0  0  0  0  0  0  0  0  0  0  0
   -8.6397  -28.5597   26.9479 N   0  0  0  0  0  0  0  0  0  0  0  0
   -7.5485  -28.7825   26.1357 C   0  0  0  0  0  0  0  0  0  0  0  0
   -7.5914  -29.8377   25.3150 C   0  0  0  0  0  0  0  0  0  0  0  0
   -8.7027  -30.7671   25.4024 C   0  0  0  0  0  0  0  0  0  0  0  0
   -9.6755  -30.5999   26.3116 C   0  0  0  0  0  0  0  0  0  0  0  0
   -9.7600  -29.3769   27.0103 C   0  0  0  0  0  0  0  0  0  0  0  0
  -10.7405  -28.8319   27.7069 N   0  0  0  0  0  0  0  0  0  0  0  0
  -11.4786  -24.8779   29.8732 N   0  0  0  0  0  0  0  0  0  0  0  0
  -11.6723  -23.5600   30.4146 C   0  0  0  0  0  0  0  0  0  0  0  0
  -11.2706  -22.7998   29.1223 C   0  0  0  0  0  0  0  0  0  0  0  0
  -12.2106  -22.4597   28.2507 N   0  0  0  0  0  0  0  0  0  0  0  0
  -12.0453  -23.2206   27.0874 C   0  0  0  0  0  0  0  0  0  0  0  0
  -10.8816  -23.9272   26.9703 C   0  0  0  0  0  0  0  0  0  0  0  0
   -9.8615  -23.3425   28.1953 S   0  0  0  0  0  0  0  0  0  0  0  0
  -11.3053  -23.4653   31.8701 C   0  0  0  0  0  0  0  0  0  0  0  0
  -10.1285  -23.4802   32.7488 C   0  0  0  0  0  0  0  0  0  0  0  0
  -11.0756  -22.2311   32.6271 C   0  0  0  0  0  0  0  0  0  0  0  0
  -11.7738  -26.6893   28.8368 H   0  0  0  0  0  0  0  0  0  0  0  0
   -8.1746  -26.7273   27.9396 H   0  0  0  0  0  0  0  0  0  0  0  0
   -6.7186  -28.0896   26.1796 H   0  0  0  0  0  0  0  0  0  0  0  0
   -6.7556  -30.1091   24.6846 H   0  0  0  0  0  0  0  0  0  0  0  0
   -8.6484  -31.6705   24.8035 H   0  0  0  0  0  0  0  0  0  0  0  0
  -10.4561  -31.3321   26.4448 H   0  0  0  0  0  0  0  0  0  0  0  0
  -12.2259  -25.3119   29.3617 H   0  0  0  0  0  0  0  0  0  0  0  0
  -12.7522  -23.3976   30.3883 H   0  0  0  0  0  0  0  0  0  0  0  0
  -12.8034  -23.2439   26.3197 H   0  0  0  0  0  0  0  0  0  0  0  0
  -10.5432  -24.5626   26.1652 H   0  0  0  0  0  0  0  0  0  0  0  0
  -11.8371  -24.1872   32.4382 H   0  0  0  0  0  0  0  0  0  0  0  0
   -9.2595  -23.8532   32.2371 H   0  0  0  0  0  0  0  0  0  0  0  0
  -10.2264  -24.1009   33.6410 H   0  0  0  0  0  0  0  0  0  0  0  0
  -11.7445  -22.0319   33.4627 H   0  0  0  0  0  0  0  0  0  0  0  0
  -10.8313  -21.3311   32.0813 H   0  0  0  0  0  0  0  0  0  0  0  0
  1  2  2  0
  2  3  1  0
  3  4  1  0
  4  5  2  0
  5  6  1  0
  6  7  1  0
  7  8  2  0
  8  9  1  0
  9 10  2  0
 10 11  1  0
 11 12  2  0
  2 13  1  0
 13 14  1  0
 14 15  1  0
 15 16  2  0
 16 17  1  0
 17 18  2  0
 18 19  1  0
 14 20  1  0
 20 21  1  0
 21 22  1  0
 12  4  1  0
 19 15  1  0
 22 20  1  0
 11  6  1  0
  3 23  1  0
  5 24  1  0
  7 25  1  0
  8 26  1  0
  9 27  1  0
 10 28  1  0
 13 29  1  0
 14 30  1  0
 17 31  1  0
 18 32  1  0
 20 33  1  0
 21 34  1  0
 21 35  1  0
 22 36  1  0
 22 37  1  0
M  END
>  <Energy>  (589) 
73.203688749159028

>  <compound_id>  (589) 
5594

>  <target_id>  (589) 
1

>  <reference_id>  (589) 
45

>  <inspiration_ids>  (589) 
[45, 88]

>  <energy_score>  (589) 
42.4355004922669

>  <distance_score>  (589) 
3.2711723964268304

>  <path>  (589) 
/opt/xchem-fragalysis-2/maxwin/BulkDock/SCRATCH/511018/C5594-P45/C5594-P45.minimised.mol

>  <scratch_subdir>  (589) 
/opt/xchem-fragalysis-2/maxwin/BulkDock/SCRATCH/511018/C5594-P45

>  <fragmenstein_runtime>  (589) 
9.524025678634644

>  <fragmenstein_outcome>  (589) 
too moved

>  <fragmenstein_mode>  (589) 
expansion

>  <fragmenstein_error>  (589) 


$$$$
C5594-P88
     RDKit          3D

 37 40  0  0  0  0  0  0  0  0999 V2000
   -9.4606  -24.7404   29.2296 O   0  0  0  0  0  0  0  0  0  0  0  0
  -10.1886  -25.0544   30.0355 C   0  0  0  0  0  0  0  0  0  0  0  0
  -11.1627  -26.2555   30.0886 N   0  0  0  0  0  0  0  0  0  0  0  0
  -11.3272  -27.2735   29.2377 C   0  0  0  0  0  0  0  0  0  0  0  0
  -10.5083  -27.2699   28.1526 C   0  0  0  0  0  0  0  0  0  0  0  0
  -10.0063  -28.5821   28.2227 N   0  0  0  0  0  0  0  0  0  0  0  0
   -8.8816  -29.1298   27.5754 C   0  0  0  0  0  0  0  0  0  0  0  0
   -8.9459  -30.4049   27.1769 C   0  0  0  0  0  0  0  0  0  0  0  0
  -10.1708  -31.1391   27.4675 C   0  0  0  0  0  0  0  0  0  0  0  0
  -11.1922  -30.6056   28.1758 C   0  0  0  0  0  0  0  0  0  0  0  0
  -11.1096  -29.2737   28.6578 C   0  0  0  0  0  0  0  0  0  0  0  0
  -11.8237  -28.5030   29.4723 N   0  0  0  0  0  0  0  0  0  0  0  0
  -10.5690  -24.3702   31.3329 N   0  0  0  0  0  0  0  0  0  0  0  0
  -10.1915  -23.1097   31.8491 C   0  0  0  0  0  0  0  0  0  0  0  0
  -11.1001  -22.1304   31.1404 C   0  0  0  0  0  0  0  0  0  0  0  0
  -10.9834  -20.8231   31.1626 N   0  0  0  0  0  0  0  0  0  0  0  0
  -11.1499  -20.3608   29.8701 C   0  0  0  0  0  0  0  0  0  0  0  0
  -11.4413  -21.3141   28.9214 C   0  0  0  0  0  0  0  0  0  0  0  0
  -12.0385  -22.6660   29.7525 S   0  0  0  0  0  0  0  0  0  0  0  0
   -9.9794  -23.2102   33.3103 C   0  0  0  0  0  0  0  0  0  0  0  0
   -8.5913  -22.9992   33.8663 C   0  0  0  0  0  0  0  0  0  0  0  0
   -9.1527  -24.3775   33.8364 C   0  0  0  0  0  0  0  0  0  0  0  0
  -11.6071  -26.2888   30.9818 H   0  0  0  0  0  0  0  0  0  0  0  0
   -9.9621  -26.4932   27.6263 H   0  0  0  0  0  0  0  0  0  0  0  0
   -8.0828  -28.4603   27.2858 H   0  0  0  0  0  0  0  0  0  0  0  0
   -8.1587  -30.8716   26.5950 H   0  0  0  0  0  0  0  0  0  0  0  0
  -10.2310  -32.1634   27.1085 H   0  0  0  0  0  0  0  0  0  0  0  0
  -12.0803  -31.1837   28.4053 H   0  0  0  0  0  0  0  0  0  0  0  0
  -11.3022  -24.8767   31.7741 H   0  0  0  0  0  0  0  0  0  0  0  0
   -9.2097  -22.9150   31.3945 H   0  0  0  0  0  0  0  0  0  0  0  0
  -10.9453  -19.3190   29.6739 H   0  0  0  0  0  0  0  0  0  0  0  0
  -11.4711  -21.2179   27.8491 H   0  0  0  0  0  0  0  0  0  0  0  0
  -10.8140  -22.8330   33.8871 H   0  0  0  0  0  0  0  0  0  0  0  0
   -7.7717  -22.7760   33.1908 H   0  0  0  0  0  0  0  0  0  0  0  0
   -8.4805  -22.5422   34.8359 H   0  0  0  0  0  0  0  0  0  0  0  0
   -9.3945  -24.8198   34.7865 H   0  0  0  0  0  0  0  0  0  0  0  0
   -8.6873  -25.0673   33.1387 H   0  0  0  0  0  0  0  0  0  0  0  0
  1  2  2  0
  2  3  1  0
  3  4  1  0
  4  5  2  0
  5  6  1  0
  6  7  1  0
  7  8  2  0
  8  9  1  0
  9 10  2  0
 10 11  1  0
 11 12  2  0
  2 13  1  0
 13 14  1  0
 14 15  1  0
 15 16  2  0
 16 17  1  0
 17 18  2  0
 18 19  1  0
 14 20  1  0
 20 21  1  0
 21 22  1  0
 12  4  1  0
 19 15  1  0
 22 20  1  0
 11  6  1  0
  3 23  1  0
  5 24  1  0
  7 25  1  0
  8 26  1  0
  9 27  1  0
 10 28  1  0
 13 29  1  0
 14 30  1  0
 17 31  1  0
 18 32  1  0
 20 33  1  0
 21 34  1  0
 21 35  1  0
 22 36  1  0
 22 37  1  0
M  END
>  <Energy>  (590) 
51.504696341272073

>  <compound_id>  (590) 
5594

>  <target_id>  (590) 
1

>  <reference_id>  (590) 
88

>  <inspiration_ids>  (590) 
[45, 88]

>  <energy_score>  (590) 
-24.08875123006416

>  <distance_score>  (590) 
3.9167335118449325

>  <path>  (590) 
/opt/xchem-fragalysis-2/maxwin/BulkDock/SCRATCH/511018/C5594-P88/C5594-P88.minimised.mol

>  <scratch_subdir>  (590) 
/opt/xchem-fragalysis-2/maxwin/BulkDock/SCRATCH/511018/C5594-P88

>  <fragmenstein_runtime>  (590) 
6.507523775100708

>  <fragmenstein_outcome>  (590) 
too moved

>  <fragmenstein_mode>  (590) 
expansion

>  <fragmenstein_error>  (590) 


$$$$
C5596-P45
     RDKit          3D

 37 39  0  0  0  0  0  0  0  0999 V2000
  -10.0137  -26.9693   29.7499 C   0  0  0  0  0  0  0  0  0  0  0  0
   -9.0770  -26.8904   28.5221 C   0  0  0  0  0  0  0  0  0  0  0  0
   -9.9090  -26.7312   27.2741 N   0  0  0  0  0  0  0  0  0  0  0  0
   -9.0815  -27.9038   26.8295 C   0  0  0  0  0  0  0  0  0  0  0  0
   -7.5462  -27.9685   26.5361 C   0  0  0  0  0  0  0  0  0  0  0  0
   -6.4933  -26.9204   26.8219 C   0  0  0  0  0  0  0  0  0  0  0  0
   -5.2273  -27.2770   26.9424 N   0  0  0  0  0  0  0  0  0  0  0  0
   -4.4305  -26.1610   27.1022 C   0  0  0  0  0  0  0  0  0  0  0  0
   -5.0870  -24.9836   27.3301 C   0  0  0  0  0  0  0  0  0  0  0  0
   -6.7119  -25.2256   27.0075 S   0  0  0  0  0  0  0  0  0  0  0  0
   -9.8981  -25.3591   26.8415 C   0  0  0  0  0  0  0  0  0  0  0  0
   -9.1720  -24.7891   26.0880 O   0  0  0  0  0  0  0  0  0  0  0  0
  -10.9441  -24.6380   27.5993 C   0  0  0  0  0  0  0  0  0  0  0  0
  -12.1018  -25.4497   27.8877 C   0  0  0  0  0  0  0  0  0  0  0  0
  -12.7079  -25.2721   29.0494 C   0  0  0  0  0  0  0  0  0  0  0  0
  -12.4679  -24.0569   29.7359 C   0  0  0  0  0  0  0  0  0  0  0  0
  -13.2575  -23.5099   30.5951 N   0  0  0  0  0  0  0  0  0  0  0  0
  -13.0687  -22.1987   30.4969 C   0  0  0  0  0  0  0  0  0  0  0  0
  -11.7274  -22.0581   30.2584 C   0  0  0  0  0  0  0  0  0  0  0  0
  -11.2245  -21.5379   32.1069 Br  0  0  0  0  0  0  0  0  0  0  0  0
  -11.4861  -23.1689   29.3945 N   0  0  0  0  0  0  0  0  0  0  0  0
  -10.6578  -23.5093   28.3152 C   0  0  0  0  0  0  0  0  0  0  0  0
  -10.2973  -25.9675   30.0696 H   0  0  0  0  0  0  0  0  0  0  0  0
  -10.9042  -27.5706   29.5457 H   0  0  0  0  0  0  0  0  0  0  0  0
   -9.5085  -27.4094   30.6151 H   0  0  0  0  0  0  0  0  0  0  0  0
   -8.5176  -25.9687   28.6912 H   0  0  0  0  0  0  0  0  0  0  0  0
   -8.4201  -27.7426   28.6819 H   0  0  0  0  0  0  0  0  0  0  0  0
   -9.4256  -28.8215   27.3434 H   0  0  0  0  0  0  0  0  0  0  0  0
   -9.5332  -28.0940   25.8455 H   0  0  0  0  0  0  0  0  0  0  0  0
   -7.2014  -28.8541   27.0897 H   0  0  0  0  0  0  0  0  0  0  0  0
   -7.4191  -28.3159   25.5125 H   0  0  0  0  0  0  0  0  0  0  0  0
   -3.3593  -26.2517   27.1376 H   0  0  0  0  0  0  0  0  0  0  0  0
   -4.6859  -24.0254   27.6120 H   0  0  0  0  0  0  0  0  0  0  0  0
  -12.3368  -26.3025   27.2590 H   0  0  0  0  0  0  0  0  0  0  0  0
  -13.5173  -25.9124   29.3874 H   0  0  0  0  0  0  0  0  0  0  0  0
  -13.7651  -21.6281   31.0937 H   0  0  0  0  0  0  0  0  0  0  0  0
   -9.7695  -22.9177   28.1835 H   0  0  0  0  0  0  0  0  0  0  0  0
  1  2  1  0
  2  3  1  0
  3  4  1  0
  4  5  1  0
  5  6  1  0
  6  7  2  0
  7  8  1  0
  8  9  2  0
  9 10  1  0
  3 11  1  0
 11 12  2  0
 11 13  1  0
 13 14  1  0
 14 15  2  0
 15 16  1  0
 16 17  2  0
 17 18  1  0
 18 19  2  0
 19 20  1  0
 19 21  1  0
 21 22  1  0
 10  6  1  0
 22 13  2  0
 21 16  1  0
  1 23  1  0
  1 24  1  0
  1 25  1  0
  2 26  1  0
  2 27  1  0
  4 28  1  0
  4 29  1  0
  5 30  1  0
  5 31  1  0
  8 32  1  0
  9 33  1  0
 14 34  1  0
 15 35  1  0
 18 36  1  0
 22 37  1  0
M  END
>  <Energy>  (591) 
231.90785082500673

>  <compound_id>  (591) 
5596

>  <target_id>  (591) 
1

>  <reference_id>  (591) 
45

>  <inspiration_ids>  (591) 
[45, 88]

>  <energy_score>  (591) 
112.6445698231787

>  <distance_score>  (591) 
2.037974790122964

>  <path>  (591) 
/opt/xchem-fragalysis-2/maxwin/BulkDock/SCRATCH/511018/C5596-P45/C5596-P45.minimised.mol

>  <scratch_subdir>  (591) 
/opt/xchem-fragalysis-2/maxwin/BulkDock/SCRATCH/511018/C5596-P45

>  <fragmenstein_runtime>  (591) 
12.890711069107056

>  <fragmenstein_outcome>  (591) 
too moved

>  <fragmenstein_mode>  (591) 
expansion

>  <fragmenstein_error>  (591) 


$$$$
C5596-P88
     RDKit          3D

 37 39  0  0  0  0  0  0  0  0999 V2000
  -15.0945  -25.1379   28.6377 C   0  0  0  0  0  0  0  0  0  0  0  0
  -14.0056  -26.1994   28.8052 C   0  0  0  0  0  0  0  0  0  0  0  0
  -12.9708  -25.9987   27.6980 N   0  0  0  0  0  0  0  0  0  0  0  0
  -13.6866  -27.1909   27.1124 C   0  0  0  0  0  0  0  0  0  0  0  0
  -13.1419  -28.6083   27.5079 C   0  0  0  0  0  0  0  0  0  0  0  0
  -13.0781  -28.9865   28.9604 C   0  0  0  0  0  0  0  0  0  0  0  0
  -12.3516  -28.3726   29.8722 N   0  0  0  0  0  0  0  0  0  0  0  0
  -12.5384  -28.9366   31.1056 C   0  0  0  0  0  0  0  0  0  0  0  0
  -13.4142  -29.9946   31.1293 C   0  0  0  0  0  0  0  0  0  0  0  0
  -13.9974  -30.3071   29.5505 S   0  0  0  0  0  0  0  0  0  0  0  0
  -11.6682  -25.8825   28.2562 C   0  0  0  0  0  0  0  0  0  0  0  0
  -10.8412  -26.7194   28.4849 O   0  0  0  0  0  0  0  0  0  0  0  0
  -11.3608  -24.4923   28.7067 C   0  0  0  0  0  0  0  0  0  0  0  0
  -11.5378  -23.2829   27.9301 C   0  0  0  0  0  0  0  0  0  0  0  0
  -11.4078  -22.0742   28.5147 C   0  0  0  0  0  0  0  0  0  0  0  0
  -11.1868  -21.9747   29.9162 C   0  0  0  0  0  0  0  0  0  0  0  0
  -11.2693  -20.9591   30.7509 N   0  0  0  0  0  0  0  0  0  0  0  0
  -10.8371  -21.4498   31.9606 C   0  0  0  0  0  0  0  0  0  0  0  0
  -10.4528  -22.7637   31.8412 C   0  0  0  0  0  0  0  0  0  0  0  0
   -9.5389  -23.7756   33.1589 Br  0  0  0  0  0  0  0  0  0  0  0  0
  -10.8286  -23.1423   30.5758 N   0  0  0  0  0  0  0  0  0  0  0  0
  -10.9277  -24.3952   29.9834 C   0  0  0  0  0  0  0  0  0  0  0  0
  -14.6397  -24.1473   28.6636 H   0  0  0  0  0  0  0  0  0  0  0  0
  -15.6290  -25.2317   27.6876 H   0  0  0  0  0  0  0  0  0  0  0  0
  -15.8272  -25.2194   29.4456 H   0  0  0  0  0  0  0  0  0  0  0  0
  -13.5035  -25.9732   29.7542 H   0  0  0  0  0  0  0  0  0  0  0  0
  -14.5175  -27.1481   29.0126 H   0  0  0  0  0  0  0  0  0  0  0  0
  -14.7857  -27.1457   27.0188 H   0  0  0  0  0  0  0  0  0  0  0  0
  -13.3952  -27.1030   26.0531 H   0  0  0  0  0  0  0  0  0  0  0  0
  -12.1280  -28.7163   27.1593 H   0  0  0  0  0  0  0  0  0  0  0  0
  -13.7287  -29.3484   26.9501 H   0  0  0  0  0  0  0  0  0  0  0  0
  -12.0084  -28.5416   31.9622 H   0  0  0  0  0  0  0  0  0  0  0  0
  -13.7227  -30.6005   31.9694 H   0  0  0  0  0  0  0  0  0  0  0  0
  -11.7170  -23.3653   26.8627 H   0  0  0  0  0  0  0  0  0  0  0  0
  -11.4508  -21.1562   27.9443 H   0  0  0  0  0  0  0  0  0  0  0  0
  -10.7695  -20.8088   32.8299 H   0  0  0  0  0  0  0  0  0  0  0  0
  -10.7305  -25.2546   30.6123 H   0  0  0  0  0  0  0  0  0  0  0  0
  1  2  1  0
  2  3  1  0
  3  4  1  0
  4  5  1  0
  5  6  1  0
  6  7  2  0
  7  8  1  0
  8  9  2  0
  9 10  1  0
  3 11  1  0
 11 12  2  0
 11 13  1  0
 13 14  1  0
 14 15  2  0
 15 16  1  0
 16 17  2  0
 17 18  1  0
 18 19  2  0
 19 20  1  0
 19 21  1  0
 21 22  1  0
 10  6  1  0
 22 13  2  0
 21 16  1  0
  1 23  1  0
  1 24  1  0
  1 25  1  0
  2 26  1  0
  2 27  1  0
  4 28  1  0
  4 29  1  0
  5 30  1  0
  5 31  1  0
  8 32  1  0
  9 33  1  0
 14 34  1  0
 15 35  1  0
 18 36  1  0
 22 37  1  0
M  END
>  <Energy>  (592) 
124.32968031462427

>  <compound_id>  (592) 
5596

>  <target_id>  (592) 
1

>  <reference_id>  (592) 
88

>  <inspiration_ids>  (592) 
[45, 88]

>  <energy_score>  (592) 
5.066399312800172

>  <distance_score>  (592) 
4.999441271951474

>  <path>  (592) 
/opt/xchem-fragalysis-2/maxwin/BulkDock/SCRATCH/511018/C5596-P88/C5596-P88.minimised.mol

>  <scratch_subdir>  (592) 
/opt/xchem-fragalysis-2/maxwin/BulkDock/SCRATCH/511018/C5596-P88

>  <fragmenstein_runtime>  (592) 
13.878941059112549

>  <fragmenstein_outcome>  (592) 
too moved

>  <fragmenstein_mode>  (592) 
expansion

>  <fragmenstein_error>  (592) 


$$$$
C5598-P45
     RDKit          3D

 35 37  0  0  0  0  0  0  0  0999 V2000
   -9.8163  -25.5094   33.7266 C   0  0  0  0  0  0  0  0  0  0  0  0
  -10.2716  -24.2518   33.2477 O   0  0  0  0  0  0  0  0  0  0  0  0
  -10.3589  -24.1667   31.8894 C   0  0  0  0  0  0  0  0  0  0  0  0
  -11.3274  -23.1466   31.4404 C   0  0  0  0  0  0  0  0  0  0  0  0
  -11.8158  -23.2252   30.1840 C   0  0  0  0  0  0  0  0  0  0  0  0
  -11.2167  -24.1277   29.3160 N   0  0  0  0  0  0  0  0  0  0  0  0
  -11.4859  -24.6252   28.0469 C   0  0  0  0  0  0  0  0  0  0  0  0
  -12.1159  -25.9634   27.9799 C   0  0  0  0  0  0  0  0  0  0  0  0
  -13.1845  -26.2217   28.4553 O   0  0  0  0  0  0  0  0  0  0  0  0
  -11.1713  -26.7884   27.3652 N   0  0  0  0  0  0  0  0  0  0  0  0
  -11.4263  -26.8456   25.8711 C   0  0  0  0  0  0  0  0  0  0  0  0
  -11.1264  -28.2566   27.2000 C   0  0  0  0  0  0  0  0  0  0  0  0
   -9.6304  -28.5725   26.9781 C   0  0  0  0  0  0  0  0  0  0  0  0
   -8.6624  -27.7143   27.2665 N   0  0  0  0  0  0  0  0  0  0  0  0
   -7.4779  -28.1096   26.6961 C   0  0  0  0  0  0  0  0  0  0  0  0
   -7.5397  -29.3070   26.0321 C   0  0  0  0  0  0  0  0  0  0  0  0
   -9.0973  -29.9969   26.2014 S   0  0  0  0  0  0  0  0  0  0  0  0
  -10.1986  -24.3794   27.5346 C   0  0  0  0  0  0  0  0  0  0  0  0
   -9.2710  -24.6888   28.5218 N   0  0  0  0  0  0  0  0  0  0  0  0
  -10.0043  -24.7437   29.6173 C   0  0  0  0  0  0  0  0  0  0  0  0
   -9.7215  -24.9578   30.9896 C   0  0  0  0  0  0  0  0  0  0  0  0
  -10.2532  -26.3466   33.1762 H   0  0  0  0  0  0  0  0  0  0  0  0
  -10.1409  -25.6254   34.7633 H   0  0  0  0  0  0  0  0  0  0  0  0
   -8.7244  -25.5389   33.6910 H   0  0  0  0  0  0  0  0  0  0  0  0
  -11.7031  -22.4440   32.1785 H   0  0  0  0  0  0  0  0  0  0  0  0
  -12.6261  -22.6229   29.8035 H   0  0  0  0  0  0  0  0  0  0  0  0
  -12.4749  -27.1118   25.6521 H   0  0  0  0  0  0  0  0  0  0  0  0
  -10.7318  -27.3994   25.2346 H   0  0  0  0  0  0  0  0  0  0  0  0
  -11.3616  -25.8135   25.5012 H   0  0  0  0  0  0  0  0  0  0  0  0
  -11.3208  -28.6238   28.2207 H   0  0  0  0  0  0  0  0  0  0  0  0
  -11.9079  -28.7773   26.6435 H   0  0  0  0  0  0  0  0  0  0  0  0
   -6.6013  -27.4778   26.7740 H   0  0  0  0  0  0  0  0  0  0  0  0
   -6.7543  -29.8032   25.4849 H   0  0  0  0  0  0  0  0  0  0  0  0
   -9.8790  -24.4209   26.5029 H   0  0  0  0  0  0  0  0  0  0  0  0
   -8.9837  -25.6959   31.2673 H   0  0  0  0  0  0  0  0  0  0  0  0
  1  2  1  0
  2  3  1  0
  3  4  1  0
  4  5  2  0
  5  6  1  0
  6  7  1  0
  7  8  1  0
  8  9  2  0
  8 10  1  0
 10 11  1  0
 10 12  1  0
 12 13  1  0
 13 14  2  0
 14 15  1  0
 15 16  2  0
 16 17  1  0
  7 18  2  0
 18 19  1  0
 19 20  2  0
 20 21  1  0
 21  3  2  0
 20  6  1  0
 17 13  1  0
  1 22  1  0
  1 23  1  0
  1 24  1  0
  4 25  1  0
  5 26  1  0
 11 27  1  0
 11 28  1  0
 11 29  1  0
 12 30  1  0
 12 31  1  0
 15 32  1  0
 16 33  1  0
 18 34  1  0
 21 35  1  0
M  END
>  <Energy>  (593) 
149.94312396043307

>  <compound_id>  (593) 
5598

>  <target_id>  (593) 
1

>  <reference_id>  (593) 
45

>  <inspiration_ids>  (593) 
[45, 88]

>  <energy_score>  (593) 
81.3782734949059

>  <distance_score>  (593) 
2.4017635712066867

>  <path>  (593) 
/opt/xchem-fragalysis-2/maxwin/BulkDock/SCRATCH/511018/C5598-P45/C5598-P45.minimised.mol

>  <scratch_subdir>  (593) 
/opt/xchem-fragalysis-2/maxwin/BulkDock/SCRATCH/511018/C5598-P45

>  <fragmenstein_runtime>  (593) 
9.999641418457031

>  <fragmenstein_outcome>  (593) 
too moved

>  <fragmenstein_mode>  (593) 
expansion

>  <fragmenstein_error>  (593) 


$$$$
C5598-P88
     RDKit          3D

 35 37  0  0  0  0  0  0  0  0999 V2000
   -8.5511  -22.9994   33.9386 C   0  0  0  0  0  0  0  0  0  0  0  0
   -9.7068  -22.2978   33.4989 O   0  0  0  0  0  0  0  0  0  0  0  0
  -10.1154  -22.6004   32.2253 C   0  0  0  0  0  0  0  0  0  0  0  0
  -11.4552  -22.1348   31.9066 C   0  0  0  0  0  0  0  0  0  0  0  0
  -12.0489  -22.5719   30.7799 C   0  0  0  0  0  0  0  0  0  0  0  0
  -11.3512  -23.4098   29.9158 N   0  0  0  0  0  0  0  0  0  0  0  0
  -11.7508  -24.2543   28.8908 C   0  0  0  0  0  0  0  0  0  0  0  0
  -13.0527  -24.8923   28.7470 C   0  0  0  0  0  0  0  0  0  0  0  0
  -14.0562  -24.4030   29.1870 O   0  0  0  0  0  0  0  0  0  0  0  0
  -12.8377  -26.1421   28.1226 N   0  0  0  0  0  0  0  0  0  0  0  0
  -13.0078  -26.0119   26.6244 C   0  0  0  0  0  0  0  0  0  0  0  0
  -13.7598  -27.3029   27.9090 C   0  0  0  0  0  0  0  0  0  0  0  0
  -12.8993  -28.5753   27.9692 C   0  0  0  0  0  0  0  0  0  0  0  0
  -11.5842  -28.6050   28.1227 N   0  0  0  0  0  0  0  0  0  0  0  0
  -11.1318  -29.9094   28.1457 C   0  0  0  0  0  0  0  0  0  0  0  0
  -12.1024  -30.8709   27.9984 C   0  0  0  0  0  0  0  0  0  0  0  0
  -13.6368  -30.1233   27.8311 S   0  0  0  0  0  0  0  0  0  0  0  0
  -10.5523  -24.6273   28.2984 C   0  0  0  0  0  0  0  0  0  0  0  0
   -9.4798  -24.2715   29.0526 N   0  0  0  0  0  0  0  0  0  0  0  0
   -9.9970  -23.6604   30.0849 C   0  0  0  0  0  0  0  0  0  0  0  0
   -9.4092  -23.2961   31.3141 C   0  0  0  0  0  0  0  0  0  0  0  0
   -7.6685  -22.7198   33.3576 H   0  0  0  0  0  0  0  0  0  0  0  0
   -8.7128  -24.0828   33.9136 H   0  0  0  0  0  0  0  0  0  0  0  0
   -8.3740  -22.7146   34.9737 H   0  0  0  0  0  0  0  0  0  0  0  0
  -11.9830  -21.5093   32.6203 H   0  0  0  0  0  0  0  0  0  0  0  0
  -13.0715  -22.3282   30.5356 H   0  0  0  0  0  0  0  0  0  0  0  0
  -12.7172  -26.8819   26.0208 H   0  0  0  0  0  0  0  0  0  0  0  0
  -13.9917  -25.5961   26.3483 H   0  0  0  0  0  0  0  0  0  0  0  0
  -12.3200  -25.2220   26.2955 H   0  0  0  0  0  0  0  0  0  0  0  0
  -14.3450  -27.3186   28.8429 H   0  0  0  0  0  0  0  0  0  0  0  0
  -14.5568  -27.3175   27.1445 H   0  0  0  0  0  0  0  0  0  0  0  0
  -10.0688  -30.0971   28.2455 H   0  0  0  0  0  0  0  0  0  0  0  0
  -11.9883  -31.9454   27.9811 H   0  0  0  0  0  0  0  0  0  0  0  0
  -10.4096  -25.2871   27.4537 H   0  0  0  0  0  0  0  0  0  0  0  0
   -8.4054  -23.6385   31.4918 H   0  0  0  0  0  0  0  0  0  0  0  0
  1  2  1  0
  2  3  1  0
  3  4  1  0
  4  5  2  0
  5  6  1  0
  6  7  1  0
  7  8  1  0
  8  9  2  0
  8 10  1  0
 10 11  1  0
 10 12  1  0
 12 13  1  0
 13 14  2  0
 14 15  1  0
 15 16  2  0
 16 17  1  0
  7 18  2  0
 18 19  1  0
 19 20  2  0
 20 21  1  0
 21  3  2  0
 20  6  1  0
 17 13  1  0
  1 22  1  0
  1 23  1  0
  1 24  1  0
  4 25  1  0
  5 26  1  0
 11 27  1  0
 11 28  1  0
 11 29  1  0
 12 30  1  0
 12 31  1  0
 15 32  1  0
 16 33  1  0
 18 34  1  0
 21 35  1  0
M  END
>  <Energy>  (594) 
86.072335004417894

>  <compound_id>  (594) 
5598

>  <target_id>  (594) 
1

>  <reference_id>  (594) 
88

>  <inspiration_ids>  (594) 
[45, 88]

>  <energy_score>  (594) 
17.507484538894516

>  <distance_score>  (594) 
3.914339446265416

>  <path>  (594) 
/opt/xchem-fragalysis-2/maxwin/BulkDock/SCRATCH/511018/C5598-P88/C5598-P88.minimised.mol

>  <scratch_subdir>  (594) 
/opt/xchem-fragalysis-2/maxwin/BulkDock/SCRATCH/511018/C5598-P88

>  <fragmenstein_runtime>  (594) 
9.328972816467285

>  <fragmenstein_outcome>  (594) 
too moved

>  <fragmenstein_mode>  (594) 
expansion

>  <fragmenstein_error>  (594) 


$$$$
C5599-P45
     RDKit          3D

 36 38  0  0  0  0  0  0  0  0999 V2000
   -9.7035  -25.1852   31.2246 C   0  0  0  0  0  0  0  0  0  0  0  0
  -10.7674  -24.2209   31.1135 O   0  0  0  0  0  0  0  0  0  0  0  0
  -11.3802  -24.1694   29.8773 C   0  0  0  0  0  0  0  0  0  0  0  0
  -11.3697  -22.8560   29.2573 C   0  0  0  0  0  0  0  0  0  0  0  0
  -11.4837  -22.8372   27.9224 C   0  0  0  0  0  0  0  0  0  0  0  0
  -11.8299  -24.0199   27.2818 N   0  0  0  0  0  0  0  0  0  0  0  0
  -11.3120  -24.6500   26.1877 C   0  0  0  0  0  0  0  0  0  0  0  0
   -9.9035  -24.8144   25.9971 C   0  0  0  0  0  0  0  0  0  0  0  0
   -9.4870  -24.8463   24.8858 O   0  0  0  0  0  0  0  0  0  0  0  0
   -9.2309  -24.9440   27.2375 N   0  0  0  0  0  0  0  0  0  0  0  0
   -9.2032  -26.5204   27.7092 C   0  0  0  0  0  0  0  0  0  0  0  0
   -9.4439  -27.6487   26.6774 C   0  0  0  0  0  0  0  0  0  0  0  0
   -9.8935  -28.8267   27.3440 O   0  0  0  0  0  0  0  0  0  0  0  0
   -7.8294  -25.0459   27.5366 C   0  0  0  0  0  0  0  0  0  0  0  0
   -7.2824  -24.0434   28.2002 N   0  0  0  0  0  0  0  0  0  0  0  0
   -5.9170  -23.9987   27.9875 C   0  0  0  0  0  0  0  0  0  0  0  0
   -5.3934  -25.0457   27.2738 C   0  0  0  0  0  0  0  0  0  0  0  0
   -6.6642  -26.0314   26.7422 S   0  0  0  0  0  0  0  0  0  0  0  0
  -12.2796  -25.5829   25.8694 C   0  0  0  0  0  0  0  0  0  0  0  0
  -12.8932  -25.9464   27.0518 N   0  0  0  0  0  0  0  0  0  0  0  0
  -12.3421  -25.1202   27.9240 C   0  0  0  0  0  0  0  0  0  0  0  0
  -11.9446  -25.2351   29.2541 C   0  0  0  0  0  0  0  0  0  0  0  0
   -9.1962  -25.0157   32.1784 H   0  0  0  0  0  0  0  0  0  0  0  0
   -8.9834  -25.0630   30.4133 H   0  0  0  0  0  0  0  0  0  0  0  0
  -10.0683  -26.2158   31.2120 H   0  0  0  0  0  0  0  0  0  0  0  0
  -11.1305  -21.9748   29.8361 H   0  0  0  0  0  0  0  0  0  0  0  0
  -11.3132  -21.9689   27.3075 H   0  0  0  0  0  0  0  0  0  0  0  0
   -8.5168  -26.8119   28.5150 H   0  0  0  0  0  0  0  0  0  0  0  0
  -10.1218  -26.5582   28.2976 H   0  0  0  0  0  0  0  0  0  0  0  0
   -8.5347  -27.9188   26.1409 H   0  0  0  0  0  0  0  0  0  0  0  0
  -10.2293  -27.3981   25.9672 H   0  0  0  0  0  0  0  0  0  0  0  0
   -9.8434  -29.5463   26.6864 H   0  0  0  0  0  0  0  0  0  0  0  0
   -5.3361  -23.1921   28.4046 H   0  0  0  0  0  0  0  0  0  0  0  0
   -4.3642  -25.2689   27.0329 H   0  0  0  0  0  0  0  0  0  0  0  0
  -12.3446  -26.2286   25.0030 H   0  0  0  0  0  0  0  0  0  0  0  0
  -11.9732  -26.2503   29.6229 H   0  0  0  0  0  0  0  0  0  0  0  0
  1  2  1  0
  2  3  1  0
  3  4  1  0
  4  5  2  0
  5  6  1  0
  6  7  1  0
  7  8  1  0
  8  9  2  0
  8 10  1  0
 10 11  1  0
 11 12  1  0
 12 13  1  0
 10 14  1  0
 14 15  2  0
 15 16  1  0
 16 17  2  0
 17 18  1  0
  7 19  2  0
 19 20  1  0
 20 21  2  0
 21 22  1  0
 22  3  2  0
 21  6  1  0
 18 14  1  0
  1 23  1  0
  1 24  1  0
  1 25  1  0
  4 26  1  0
  5 27  1  0
 11 28  1  0
 11 29  1  0
 12 30  1  0
 12 31  1  0
 13 32  1  0
 16 33  1  0
 17 34  1  0
 19 35  1  0
 22 36  1  0
M  END
>  <Energy>  (595) 
157.95328106157791

>  <compound_id>  (595) 
5599

>  <target_id>  (595) 
1

>  <reference_id>  (595) 
45

>  <inspiration_ids>  (595) 
[45, 88]

>  <energy_score>  (595) 
39.16454242906349

>  <distance_score>  (595) 
2.880376509724085

>  <path>  (595) 
/opt/xchem-fragalysis-2/maxwin/BulkDock/SCRATCH/511018/C5599-P45/C5599-P45.minimised.mol

>  <scratch_subdir>  (595) 
/opt/xchem-fragalysis-2/maxwin/BulkDock/SCRATCH/511018/C5599-P45

>  <fragmenstein_runtime>  (595) 
10.673682451248169

>  <fragmenstein_outcome>  (595) 
too moved

>  <fragmenstein_mode>  (595) 
expansion

>  <fragmenstein_error>  (595) 


$$$$
C5599-P88
     RDKit          3D

 36 38  0  0  0  0  0  0  0  0999 V2000
  -10.9073  -21.6214   34.2333 C   0  0  0  0  0  0  0  0  0  0  0  0
   -9.9802  -22.5306   33.6514 O   0  0  0  0  0  0  0  0  0  0  0  0
  -10.2260  -22.7900   32.3290 C   0  0  0  0  0  0  0  0  0  0  0  0
   -9.7615  -24.1032   31.9258 C   0  0  0  0  0  0  0  0  0  0  0  0
  -10.1894  -24.6036   30.7576 C   0  0  0  0  0  0  0  0  0  0  0  0
  -10.9827  -23.8324   29.9171 N   0  0  0  0  0  0  0  0  0  0  0  0
  -11.7374  -24.1318   28.7956 C   0  0  0  0  0  0  0  0  0  0  0  0
  -12.3834  -25.3627   28.3496 C   0  0  0  0  0  0  0  0  0  0  0  0
  -13.3505  -25.2430   27.6451 O   0  0  0  0  0  0  0  0  0  0  0  0
  -11.7149  -26.5249   28.8022 N   0  0  0  0  0  0  0  0  0  0  0  0
  -12.3233  -27.0139   30.2005 C   0  0  0  0  0  0  0  0  0  0  0  0
  -13.8324  -27.3081   30.3466 C   0  0  0  0  0  0  0  0  0  0  0  0
  -14.1260  -27.2578   31.7368 O   0  0  0  0  0  0  0  0  0  0  0  0
  -11.9132  -27.8909   28.4843 C   0  0  0  0  0  0  0  0  0  0  0  0
  -11.0535  -28.8475   28.7616 N   0  0  0  0  0  0  0  0  0  0  0  0
  -11.5124  -30.0408   28.2520 C   0  0  0  0  0  0  0  0  0  0  0  0
  -12.7087  -29.9748   27.5767 C   0  0  0  0  0  0  0  0  0  0  0  0
  -13.1737  -28.3354   27.3985 S   0  0  0  0  0  0  0  0  0  0  0  0
  -11.8876  -22.8889   28.1998 C   0  0  0  0  0  0  0  0  0  0  0  0
  -11.6300  -21.8754   29.0832 N   0  0  0  0  0  0  0  0  0  0  0  0
  -11.1867  -22.4799   30.1572 C   0  0  0  0  0  0  0  0  0  0  0  0
  -10.8809  -21.9944   31.4544 C   0  0  0  0  0  0  0  0  0  0  0  0
  -10.7248  -20.6003   33.8891 H   0  0  0  0  0  0  0  0  0  0  0  0
  -11.9431  -21.9054   34.0342 H   0  0  0  0  0  0  0  0  0  0  0  0
  -10.7590  -21.6545   35.3095 H   0  0  0  0  0  0  0  0  0  0  0  0
   -9.1111  -24.6609   32.5907 H   0  0  0  0  0  0  0  0  0  0  0  0
   -9.9204  -25.5833   30.4170 H   0  0  0  0  0  0  0  0  0  0  0  0
  -11.6990  -27.7606   30.7205 H   0  0  0  0  0  0  0  0  0  0  0  0
  -12.1688  -26.1425   30.8437 H   0  0  0  0  0  0  0  0  0  0  0  0
  -14.4466  -26.5626   29.8343 H   0  0  0  0  0  0  0  0  0  0  0  0
  -14.1049  -28.3092   30.0076 H   0  0  0  0  0  0  0  0  0  0  0  0
  -15.0847  -27.4162   31.8354 H   0  0  0  0  0  0  0  0  0  0  0  0
  -10.9360  -30.9454   28.3922 H   0  0  0  0  0  0  0  0  0  0  0  0
  -13.2626  -30.7771   27.1101 H   0  0  0  0  0  0  0  0  0  0  0  0
  -12.3142  -22.6796   27.2245 H   0  0  0  0  0  0  0  0  0  0  0  0
  -11.2291  -21.0001   31.7010 H   0  0  0  0  0  0  0  0  0  0  0  0
  1  2  1  0
  2  3  1  0
  3  4  1  0
  4  5  2  0
  5  6  1  0
  6  7  1  0
  7  8  1  0
  8  9  2  0
  8 10  1  0
 10 11  1  0
 11 12  1  0
 12 13  1  0
 10 14  1  0
 14 15  2  0
 15 16  1  0
 16 17  2  0
 17 18  1  0
  7 19  2  0
 19 20  1  0
 20 21  2  0
 21 22  1  0
 22  3  2  0
 21  6  1  0
 18 14  1  0
  1 23  1  0
  1 24  1  0
  1 25  1  0
  4 26  1  0
  5 27  1  0
 11 28  1  0
 11 29  1  0
 12 30  1  0
 12 31  1  0
 13 32  1  0
 16 33  1  0
 17 34  1  0
 19 35  1  0
 22 36  1  0
M  END
>  <Energy>  (596) 
90.94582343783982

>  <compound_id>  (596) 
5599

>  <target_id>  (596) 
1

>  <reference_id>  (596) 
88

>  <inspiration_ids>  (596) 
[45, 88]

>  <energy_score>  (596) 
-27.842915194669388

>  <distance_score>  (596) 
4.605454092034825

>  <path>  (596) 
/opt/xchem-fragalysis-2/maxwin/BulkDock/SCRATCH/511018/C5599-P88/C5599-P88.minimised.mol

>  <scratch_subdir>  (596) 
/opt/xchem-fragalysis-2/maxwin/BulkDock/SCRATCH/511018/C5599-P88

>  <fragmenstein_runtime>  (596) 
12.83588433265686

>  <fragmenstein_outcome>  (596) 
too moved

>  <fragmenstein_mode>  (596) 
expansion

>  <fragmenstein_error>  (596) 


$$$$
C5600-P45
     RDKit          3D

 35 37  0  0  0  0  0  0  0  0999 V2000
   -9.0907  -25.3759   33.4951 C   0  0  0  0  0  0  0  0  0  0  0  0
   -9.6540  -24.2851   32.7873 O   0  0  0  0  0  0  0  0  0  0  0  0
  -10.1169  -24.6421   31.5446 C   0  0  0  0  0  0  0  0  0  0  0  0
  -10.9822  -23.6065   30.9250 C   0  0  0  0  0  0  0  0  0  0  0  0
  -11.3432  -23.7509   29.6347 C   0  0  0  0  0  0  0  0  0  0  0  0
  -11.0850  -24.9699   29.0228 N   0  0  0  0  0  0  0  0  0  0  0  0
  -11.0435  -25.3706   27.7119 C   0  0  0  0  0  0  0  0  0  0  0  0
  -10.0805  -24.9029   26.7430 C   0  0  0  0  0  0  0  0  0  0  0  0
  -10.3851  -24.7273   25.6037 O   0  0  0  0  0  0  0  0  0  0  0  0
   -8.8031  -24.8201   27.3975 N   0  0  0  0  0  0  0  0  0  0  0  0
   -7.4928  -24.5991   26.8723 C   0  0  0  0  0  0  0  0  0  0  0  0
   -6.7281  -23.5838   27.7004 C   0  0  0  0  0  0  0  0  0  0  0  0
   -6.8153  -25.9579   26.8899 C   0  0  0  0  0  0  0  0  0  0  0  0
   -5.5167  -26.1485   26.9858 N   0  0  0  0  0  0  0  0  0  0  0  0
   -5.2341  -27.4733   26.7208 C   0  0  0  0  0  0  0  0  0  0  0  0
   -6.3187  -28.2872   26.4976 C   0  0  0  0  0  0  0  0  0  0  0  0
   -7.7456  -27.4275   26.7953 S   0  0  0  0  0  0  0  0  0  0  0  0
  -11.3320  -26.7259   27.8108 C   0  0  0  0  0  0  0  0  0  0  0  0
  -10.9158  -27.1737   29.0463 N   0  0  0  0  0  0  0  0  0  0  0  0
  -10.5814  -26.0788   29.6929 C   0  0  0  0  0  0  0  0  0  0  0  0
   -9.9183  -25.8336   30.9214 C   0  0  0  0  0  0  0  0  0  0  0  0
   -8.2160  -25.7680   32.9684 H   0  0  0  0  0  0  0  0  0  0  0  0
   -8.7295  -25.0578   34.4661 H   0  0  0  0  0  0  0  0  0  0  0  0
   -9.8641  -26.1271   33.6790 H   0  0  0  0  0  0  0  0  0  0  0  0
  -11.2150  -22.7148   31.4986 H   0  0  0  0  0  0  0  0  0  0  0  0
  -11.8572  -22.9944   29.0547 H   0  0  0  0  0  0  0  0  0  0  0  0
   -8.9034  -25.1141   28.3540 H   0  0  0  0  0  0  0  0  0  0  0  0
   -7.5679  -24.2620   25.8467 H   0  0  0  0  0  0  0  0  0  0  0  0
   -5.7399  -23.3890   27.2760 H   0  0  0  0  0  0  0  0  0  0  0  0
   -7.2686  -22.6356   27.7526 H   0  0  0  0  0  0  0  0  0  0  0  0
   -6.5775  -23.9373   28.7216 H   0  0  0  0  0  0  0  0  0  0  0  0
   -4.2064  -27.7870   26.6576 H   0  0  0  0  0  0  0  0  0  0  0  0
   -6.3607  -29.3200   26.1917 H   0  0  0  0  0  0  0  0  0  0  0  0
  -11.4680  -27.4347   27.0011 H   0  0  0  0  0  0  0  0  0  0  0  0
   -9.3788  -26.6620   31.3638 H   0  0  0  0  0  0  0  0  0  0  0  0
  1  2  1  0
  2  3  1  0
  3  4  1  0
  4  5  2  0
  5  6  1  0
  6  7  1  0
  7  8  1  0
  8  9  2  0
  8 10  1  0
 10 11  1  0
 11 12  1  0
 11 13  1  0
 13 14  2  0
 14 15  1  0
 15 16  2  0
 16 17  1  0
  7 18  2  0
 18 19  1  0
 19 20  2  0
 20 21  1  0
 21  3  2  0
 20  6  1  0
 17 13  1  0
  1 22  1  0
  1 23  1  0
  1 24  1  0
  4 25  1  0
  5 26  1  0
 10 27  1  0
 11 28  1  0
 12 29  1  0
 12 30  1  0
 12 31  1  0
 15 32  1  0
 16 33  1  0
 18 34  1  0
 21 35  1  0
M  END
>  <Energy>  (597) 
45.689927922797587

>  <compound_id>  (597) 
5600

>  <target_id>  (597) 
1

>  <reference_id>  (597) 
45

>  <inspiration_ids>  (597) 
[45, 88]

>  <energy_score>  (597) 
-7.207125436586068

>  <distance_score>  (597) 
2.303149474958858

>  <path>  (597) 
/opt/xchem-fragalysis-2/maxwin/BulkDock/SCRATCH/511018/C5600-P45/C5600-P45.minimised.mol

>  <scratch_subdir>  (597) 
/opt/xchem-fragalysis-2/maxwin/BulkDock/SCRATCH/511018/C5600-P45

>  <fragmenstein_runtime>  (597) 
11.806454420089722

>  <fragmenstein_outcome>  (597) 
too moved

>  <fragmenstein_mode>  (597) 
expansion

>  <fragmenstein_error>  (597) 


$$$$
C5600-P88
     RDKit          3D

 35 37  0  0  0  0  0  0  0  0999 V2000
   -8.3134  -23.1368   33.6187 C   0  0  0  0  0  0  0  0  0  0  0  0
   -9.5618  -22.5240   33.3356 O   0  0  0  0  0  0  0  0  0  0  0  0
  -10.0568  -22.7105   32.0724 C   0  0  0  0  0  0  0  0  0  0  0  0
  -11.4271  -22.2467   31.9254 C   0  0  0  0  0  0  0  0  0  0  0  0
  -12.1098  -22.5762   30.8148 C   0  0  0  0  0  0  0  0  0  0  0  0
  -11.4688  -23.2769   29.8076 N   0  0  0  0  0  0  0  0  0  0  0  0
  -11.9177  -24.0420   28.7514 C   0  0  0  0  0  0  0  0  0  0  0  0
  -13.0412  -24.9436   28.7965 C   0  0  0  0  0  0  0  0  0  0  0  0
  -14.1545  -24.5455   28.9596 O   0  0  0  0  0  0  0  0  0  0  0  0
  -12.5280  -26.2790   28.7121 N   0  0  0  0  0  0  0  0  0  0  0  0
  -13.1747  -27.5547   28.8917 C   0  0  0  0  0  0  0  0  0  0  0  0
  -13.6068  -27.6699   30.3469 C   0  0  0  0  0  0  0  0  0  0  0  0
  -12.1669  -28.6418   28.5710 C   0  0  0  0  0  0  0  0  0  0  0  0
  -10.8620  -28.4583   28.4799 N   0  0  0  0  0  0  0  0  0  0  0  0
  -10.2214  -29.6758   28.3163 C   0  0  0  0  0  0  0  0  0  0  0  0
  -11.0478  -30.7670   28.1982 C   0  0  0  0  0  0  0  0  0  0  0  0
  -12.6810  -30.2666   28.3215 S   0  0  0  0  0  0  0  0  0  0  0  0
  -10.8400  -24.0593   27.8898 C   0  0  0  0  0  0  0  0  0  0  0  0
   -9.6974  -23.8078   28.5966 N   0  0  0  0  0  0  0  0  0  0  0  0
  -10.0998  -23.4624   29.7970 C   0  0  0  0  0  0  0  0  0  0  0  0
   -9.4167  -23.2688   31.0222 C   0  0  0  0  0  0  0  0  0  0  0  0
   -7.5197  -22.7359   32.9858 H   0  0  0  0  0  0  0  0  0  0  0  0
   -8.0698  -22.8918   34.6520 H   0  0  0  0  0  0  0  0  0  0  0  0
   -8.3784  -24.2260   33.5272 H   0  0  0  0  0  0  0  0  0  0  0  0
  -11.8987  -21.7085   32.7426 H   0  0  0  0  0  0  0  0  0  0  0  0
  -13.1504  -22.3282   30.6740 H   0  0  0  0  0  0  0  0  0  0  0  0
  -11.5368  -26.2404   28.4852 H   0  0  0  0  0  0  0  0  0  0  0  0
  -14.0405  -27.5972   28.2229 H   0  0  0  0  0  0  0  0  0  0  0  0
  -14.3744  -26.9259   30.5806 H   0  0  0  0  0  0  0  0  0  0  0  0
  -12.7681  -27.5156   31.0366 H   0  0  0  0  0  0  0  0  0  0  0  0
  -14.0402  -28.6522   30.5642 H   0  0  0  0  0  0  0  0  0  0  0  0
   -9.1424  -29.6908   28.2300 H   0  0  0  0  0  0  0  0  0  0  0  0
  -10.7797  -31.8017   28.0387 H   0  0  0  0  0  0  0  0  0  0  0  0
  -10.7963  -24.4676   26.8882 H   0  0  0  0  0  0  0  0  0  0  0  0
   -8.3924  -23.5883   31.0653 H   0  0  0  0  0  0  0  0  0  0  0  0
  1  2  1  0
  2  3  1  0
  3  4  1  0
  4  5  2  0
  5  6  1  0
  6  7  1  0
  7  8  1  0
  8  9  2  0
  8 10  1  0
 10 11  1  0
 11 12  1  0
 11 13  1  0
 13 14  2  0
 14 15  1  0
 15 16  2  0
 16 17  1  0
  7 18  2  0
 18 19  1  0
 19 20  2  0
 20 21  1  0
 21  3  2  0
 20  6  1  0
 17 13  1  0
  1 22  1  0
  1 23  1  0
  1 24  1  0
  4 25  1  0
  5 26  1  0
 10 27  1  0
 11 28  1  0
 12 29  1  0
 12 30  1  0
 12 31  1  0
 15 32  1  0
 16 33  1  0
 18 34  1  0
 21 35  1  0
M  END
>  <Energy>  (598) 
13.194236559609054

>  <compound_id>  (598) 
5600

>  <target_id>  (598) 
1

>  <reference_id>  (598) 
88

>  <inspiration_ids>  (598) 
[45, 88]

>  <energy_score>  (598) 
-39.702816799773586

>  <distance_score>  (598) 
4.4407359610855925

>  <path>  (598) 
/opt/xchem-fragalysis-2/maxwin/BulkDock/SCRATCH/511018/C5600-P88/C5600-P88.minimised.mol

>  <scratch_subdir>  (598) 
/opt/xchem-fragalysis-2/maxwin/BulkDock/SCRATCH/511018/C5600-P88

>  <fragmenstein_runtime>  (598) 
19.47966957092285

>  <fragmenstein_outcome>  (598) 
too moved

>  <fragmenstein_mode>  (598) 
expansion

>  <fragmenstein_error>  (598) 


$$$$
C5601-P45
     RDKit          3D

 29 31  0  0  0  0  0  0  0  0999 V2000
  -11.7001  -22.1020   31.9330 C   0  0  0  0  0  0  0  0  0  0  0  0
  -12.6054  -22.4035   30.8692 O   0  0  0  0  0  0  0  0  0  0  0  0
  -12.0725  -23.1980   29.8810 C   0  0  0  0  0  0  0  0  0  0  0  0
  -11.0050  -22.6660   29.0895 C   0  0  0  0  0  0  0  0  0  0  0  0
  -10.3372  -23.5250   28.3062 C   0  0  0  0  0  0  0  0  0  0  0  0
  -10.8268  -24.8051   28.0775 N   0  0  0  0  0  0  0  0  0  0  0  0
  -10.3187  -25.8410   27.3376 C   0  0  0  0  0  0  0  0  0  0  0  0
   -9.0488  -25.7041   26.7191 C   0  0  0  0  0  0  0  0  0  0  0  0
   -8.8950  -24.7696   26.0070 O   0  0  0  0  0  0  0  0  0  0  0  0
   -8.1490  -26.6841   27.1496 N   0  0  0  0  0  0  0  0  0  0  0  0
   -6.8320  -26.8086   26.9599 C   0  0  0  0  0  0  0  0  0  0  0  0
   -6.1651  -27.9220   27.0356 N   0  0  0  0  0  0  0  0  0  0  0  0
   -4.8391  -27.5905   26.9194 C   0  0  0  0  0  0  0  0  0  0  0  0
   -4.5212  -26.2501   26.8825 C   0  0  0  0  0  0  0  0  0  0  0  0
   -5.9472  -25.3324   26.9248 S   0  0  0  0  0  0  0  0  0  0  0  0
  -11.2515  -26.8463   27.4082 C   0  0  0  0  0  0  0  0  0  0  0  0
  -12.2911  -26.4782   28.2176 N   0  0  0  0  0  0  0  0  0  0  0  0
  -11.9755  -25.2748   28.6452 C   0  0  0  0  0  0  0  0  0  0  0  0
  -12.5487  -24.4245   29.6053 C   0  0  0  0  0  0  0  0  0  0  0  0
  -11.0698  -21.2580   31.6506 H   0  0  0  0  0  0  0  0  0  0  0  0
  -12.2917  -21.7917   32.7999 H   0  0  0  0  0  0  0  0  0  0  0  0
  -11.1062  -22.9756   32.2211 H   0  0  0  0  0  0  0  0  0  0  0  0
  -10.7064  -21.6373   29.2172 H   0  0  0  0  0  0  0  0  0  0  0  0
   -9.4042  -23.2724   27.8408 H   0  0  0  0  0  0  0  0  0  0  0  0
   -8.6501  -27.3770   27.6851 H   0  0  0  0  0  0  0  0  0  0  0  0
   -4.1099  -28.3742   26.8970 H   0  0  0  0  0  0  0  0  0  0  0  0
   -3.5371  -25.8109   26.8262 H   0  0  0  0  0  0  0  0  0  0  0  0
  -11.2289  -27.8188   26.9333 H   0  0  0  0  0  0  0  0  0  0  0  0
  -13.4035  -24.8288   30.1296 H   0  0  0  0  0  0  0  0  0  0  0  0
  1  2  1  0
  2  3  1  0
  3  4  1  0
  4  5  2  0
  5  6  1  0
  6  7  1  0
  7  8  1  0
  8  9  2  0
  8 10  1  0
 10 11  1  0
 11 12  2  0
 12 13  1  0
 13 14  2  0
 14 15  1  0
  7 16  2  0
 16 17  1  0
 17 18  2  0
 18 19  1  0
 19  3  2  0
 18  6  1  0
 15 11  1  0
  1 20  1  0
  1 21  1  0
  1 22  1  0
  4 23  1  0
  5 24  1  0
 10 25  1  0
 13 26  1  0
 14 27  1  0
 16 28  1  0
 19 29  1  0
M  END
>  <Energy>  (599) 
-11.342746801892066

>  <compound_id>  (599) 
5601

>  <target_id>  (599) 
1

>  <reference_id>  (599) 
45

>  <inspiration_ids>  (599) 
[45, 88]

>  <energy_score>  (599) 
-41.45006232841078

>  <distance_score>  (599) 
3.42198433661052

>  <path>  (599) 
/opt/xchem-fragalysis-2/maxwin/BulkDock/SCRATCH/511018/C5601-P45/C5601-P45.minimised.mol

>  <scratch_subdir>  (599) 
/opt/xchem-fragalysis-2/maxwin/BulkDock/SCRATCH/511018/C5601-P45

>  <fragmenstein_runtime>  (599) 
9.382962465286255

>  <fragmenstein_outcome>  (599) 
too moved

>  <fragmenstein_mode>  (599) 
expansion

>  <fragmenstein_error>  (599) 


$$$$
C5601-P88
     RDKit          3D

 29 31  0  0  0  0  0  0  0  0999 V2000
  -11.5935  -20.3588   32.6085 C   0  0  0  0  0  0  0  0  0  0  0  0
  -11.3858  -20.3504   31.1968 O   0  0  0  0  0  0  0  0  0  0  0  0
  -11.2267  -21.5745   30.6020 C   0  0  0  0  0  0  0  0  0  0  0  0
  -10.7578  -21.4984   29.2193 C   0  0  0  0  0  0  0  0  0  0  0  0
  -10.1697  -22.5773   28.6646 C   0  0  0  0  0  0  0  0  0  0  0  0
  -10.2191  -23.7861   29.3419 N   0  0  0  0  0  0  0  0  0  0  0  0
   -9.7540  -25.0467   29.0506 C   0  0  0  0  0  0  0  0  0  0  0  0
   -8.6361  -25.6601   28.2738 C   0  0  0  0  0  0  0  0  0  0  0  0
   -9.0094  -26.3523   27.3502 O   0  0  0  0  0  0  0  0  0  0  0  0
   -7.2038  -25.4051   28.8298 N   0  0  0  0  0  0  0  0  0  0  0  0
   -5.6914  -25.9442   28.2831 C   0  0  0  0  0  0  0  0  0  0  0  0
   -5.3090  -26.7746   27.3005 N   0  0  0  0  0  0  0  0  0  0  0  0
   -3.6018  -26.5562   27.1044 C   0  0  0  0  0  0  0  0  0  0  0  0
   -2.9236  -25.9390   28.1110 C   0  0  0  0  0  0  0  0  0  0  0  0
   -4.2129  -25.5579   28.8449 S   0  0  0  0  0  0  0  0  0  0  0  0
  -10.7904  -25.8185   29.6004 C   0  0  0  0  0  0  0  0  0  0  0  0
  -11.4484  -25.1709   30.5958 N   0  0  0  0  0  0  0  0  0  0  0  0
  -11.0325  -23.9366   30.4690 C   0  0  0  0  0  0  0  0  0  0  0  0
  -11.3801  -22.7743   31.1898 C   0  0  0  0  0  0  0  0  0  0  0  0
  -10.7752  -20.8687   33.1283 H   0  0  0  0  0  0  0  0  0  0  0  0
  -11.6060  -19.3195   32.9495 H   0  0  0  0  0  0  0  0  0  0  0  0
  -12.5612  -20.8027   32.8585 H   0  0  0  0  0  0  0  0  0  0  0  0
  -10.8076  -20.5467   28.7005 H   0  0  0  0  0  0  0  0  0  0  0  0
   -9.7459  -22.5776   27.6725 H   0  0  0  0  0  0  0  0  0  0  0  0
   -7.2464  -24.7216   29.5410 H   0  0  0  0  0  0  0  0  0  0  0  0
   -3.1585  -26.4766   26.1016 H   0  0  0  0  0  0  0  0  0  0  0  0
   -1.9548  -25.6025   28.4029 H   0  0  0  0  0  0  0  0  0  0  0  0
  -10.9834  -26.8707   29.4213 H   0  0  0  0  0  0  0  0  0  0  0  0
  -11.7375  -22.8961   32.2019 H   0  0  0  0  0  0  0  0  0  0  0  0
  1  2  1  0
  2  3  1  0
  3  4  1  0
  4  5  2  0
  5  6  1  0
  6  7  1  0
  7  8  1  0
  8  9  2  0
  8 10  1  0
 10 11  1  0
 11 12  2  0
 12 13  1  0
 13 14  2  0
 14 15  1  0
  7 16  2  0
 16 17  1  0
 17 18  2  0
 18 19  1  0
 19  3  2  0
 18  6  1  0
 15 11  1  0
  1 20  1  0
  1 21  1  0
  1 22  1  0
  4 23  1  0
  5 24  1  0
 10 25  1  0
 13 26  1  0
 14 27  1  0
 16 28  1  0
 19 29  1  0
M  END
>  <Energy>  (600) 
145.59511538257618

>  <compound_id>  (600) 
5601

>  <target_id>  (600) 
1

>  <reference_id>  (600) 
88

>  <inspiration_ids>  (600) 
[45, 88]

>  <energy_score>  (600) 
115.48779985605643

>  <distance_score>  (600) 
3.3818716745884703

>  <path>  (600) 
/opt/xchem-fragalysis-2/maxwin/BulkDock/SCRATCH/511018/C5601-P88/C5601-P88.minimised.mol

>  <scratch_subdir>  (600) 
/opt/xchem-fragalysis-2/maxwin/BulkDock/SCRATCH/511018/C5601-P88

>  <fragmenstein_runtime>  (600) 
9.484970808029175

>  <fragmenstein_outcome>  (600) 
too moved

>  <fragmenstein_mode>  (600) 
expansion

>  <fragmenstein_error>  (600) 


$$$$
C5602-P45
     RDKit          3D

 38 40  0  0  0  0  0  0  0  0999 V2000
   -8.5288  -29.6297   26.6673 C   0  0  0  0  0  0  0  0  0  0  0  0
   -8.8521  -28.2991   27.3334 C   0  0  0  0  0  0  0  0  0  0  0  0
   -8.1741  -27.1316   26.6400 C   0  0  0  0  0  0  0  0  0  0  0  0
   -9.1485  -26.0918   26.6281 N   0  0  0  0  0  0  0  0  0  0  0  0
   -9.2472  -24.9048   27.3790 C   0  0  0  0  0  0  0  0  0  0  0  0
   -8.4984  -24.4152   28.1667 O   0  0  0  0  0  0  0  0  0  0  0  0
  -10.5484  -24.3200   27.1422 C   0  0  0  0  0  0  0  0  0  0  0  0
  -11.6854  -24.9332   26.6348 C   0  0  0  0  0  0  0  0  0  0  0  0
  -12.5503  -25.0957   27.6827 N   0  0  0  0  0  0  0  0  0  0  0  0
  -12.1074  -24.2320   28.5794 C   0  0  0  0  0  0  0  0  0  0  0  0
  -12.5149  -23.8711   29.8734 C   0  0  0  0  0  0  0  0  0  0  0  0
  -12.0991  -22.7400   30.4662 C   0  0  0  0  0  0  0  0  0  0  0  0
  -12.5858  -22.2898   31.6643 O   0  0  0  0  0  0  0  0  0  0  0  0
  -11.6136  -22.2475   32.7093 C   0  0  0  0  0  0  0  0  0  0  0  0
  -11.2205  -21.8668   29.7713 C   0  0  0  0  0  0  0  0  0  0  0  0
  -10.7095  -22.2764   28.6085 C   0  0  0  0  0  0  0  0  0  0  0  0
  -11.1009  -23.4727   28.0604 N   0  0  0  0  0  0  0  0  0  0  0  0
   -6.7615  -26.8442   26.9631 C   0  0  0  0  0  0  0  0  0  0  0  0
   -5.9364  -27.8501   27.1411 N   0  0  0  0  0  0  0  0  0  0  0  0
   -4.6647  -27.3871   27.1696 C   0  0  0  0  0  0  0  0  0  0  0  0
   -4.5016  -26.0303   27.0558 C   0  0  0  0  0  0  0  0  0  0  0  0
   -6.0178  -25.2862   26.9128 S   0  0  0  0  0  0  0  0  0  0  0  0
   -9.0831  -30.4508   27.1285 H   0  0  0  0  0  0  0  0  0  0  0  0
   -8.8043  -29.6185   25.6073 H   0  0  0  0  0  0  0  0  0  0  0  0
   -7.4629  -29.8392   26.7320 H   0  0  0  0  0  0  0  0  0  0  0  0
   -8.6100  -28.2399   28.3862 H   0  0  0  0  0  0  0  0  0  0  0  0
   -9.9467  -28.2051   27.2829 H   0  0  0  0  0  0  0  0  0  0  0  0
   -8.0767  -27.5106   25.6401 H   0  0  0  0  0  0  0  0  0  0  0  0
   -9.9298  -26.1485   26.0040 H   0  0  0  0  0  0  0  0  0  0  0  0
  -11.8066  -25.5485   25.7530 H   0  0  0  0  0  0  0  0  0  0  0  0
  -13.2812  -24.5050   30.2828 H   0  0  0  0  0  0  0  0  0  0  0  0
  -10.9682  -23.1322   32.7015 H   0  0  0  0  0  0  0  0  0  0  0  0
  -11.0327  -21.3257   32.6268 H   0  0  0  0  0  0  0  0  0  0  0  0
  -12.1476  -22.2197   33.6639 H   0  0  0  0  0  0  0  0  0  0  0  0
  -10.8767  -20.9809   30.2600 H   0  0  0  0  0  0  0  0  0  0  0  0
   -9.9527  -21.7156   28.1134 H   0  0  0  0  0  0  0  0  0  0  0  0
   -3.8769  -28.0937   27.3393 H   0  0  0  0  0  0  0  0  0  0  0  0
   -3.5682  -25.4981   27.0899 H   0  0  0  0  0  0  0  0  0  0  0  0
  1  2  1  0
  2  3  1  0
  3  4  1  0
  4  5  1  0
  5  6  2  0
  5  7  1  0
  7  8  2  0
  8  9  1  0
  9 10  2  0
 10 11  1  0
 11 12  2  0
 12 13  1  0
 13 14  1  0
 12 15  1  0
 15 16  2  0
 16 17  1  0
  3 18  1  0
 18 19  2  0
 19 20  1  0
 20 21  2  0
 21 22  1  0
 17  7  1  0
 22 18  1  0
 17 10  1  0
  1 23  1  0
  1 24  1  0
  1 25  1  0
  2 26  1  0
  2 27  1  0
  3 28  1  0
  4 29  1  0
  8 30  1  0
 11 31  1  0
 14 32  1  0
 14 33  1  0
 14 34  1  0
 15 35  1  0
 16 36  1  0
 20 37  1  0
 21 38  1  0
M  END
>  <Energy>  (601) 
60.927960869346848

>  <compound_id>  (601) 
5602

>  <target_id>  (601) 
1

>  <reference_id>  (601) 
45

>  <inspiration_ids>  (601) 
[45, 88]

>  <energy_score>  (601) 
14.707682239230053

>  <distance_score>  (601) 
2.831896117589689

>  <path>  (601) 
/opt/xchem-fragalysis-2/maxwin/BulkDock/SCRATCH/511018/C5602-P45/C5602-P45.minimised.mol

>  <scratch_subdir>  (601) 
/opt/xchem-fragalysis-2/maxwin/BulkDock/SCRATCH/511018/C5602-P45

>  <fragmenstein_runtime>  (601) 
15.513500690460205

>  <fragmenstein_outcome>  (601) 
too moved

>  <fragmenstein_mode>  (601) 
expansion

>  <fragmenstein_error>  (601) 


$$$$
C5602-P88
     RDKit          3D

 38 40  0  0  0  0  0  0  0  0999 V2000
  -12.1951  -29.6708   28.4504 C   0  0  0  0  0  0  0  0  0  0  0  0
  -11.7838  -28.2856   28.9213 C   0  0  0  0  0  0  0  0  0  0  0  0
  -12.8661  -27.2068   28.7937 C   0  0  0  0  0  0  0  0  0  0  0  0
  -12.2834  -25.9045   29.0051 N   0  0  0  0  0  0  0  0  0  0  0  0
  -12.8866  -24.6096   29.0968 C   0  0  0  0  0  0  0  0  0  0  0  0
  -14.0343  -24.2830   29.1022 O   0  0  0  0  0  0  0  0  0  0  0  0
  -11.8184  -23.6505   29.0905 C   0  0  0  0  0  0  0  0  0  0  0  0
  -10.7423  -23.6095   28.2227 C   0  0  0  0  0  0  0  0  0  0  0  0
   -9.5980  -23.4641   28.9599 N   0  0  0  0  0  0  0  0  0  0  0  0
  -10.0147  -23.1968   30.1757 C   0  0  0  0  0  0  0  0  0  0  0  0
   -9.3509  -23.1046   31.4155 C   0  0  0  0  0  0  0  0  0  0  0  0
   -9.9883  -22.5676   32.4774 C   0  0  0  0  0  0  0  0  0  0  0  0
   -9.4933  -22.4506   33.7442 O   0  0  0  0  0  0  0  0  0  0  0  0
   -8.2308  -23.0557   33.9502 C   0  0  0  0  0  0  0  0  0  0  0  0
  -11.3430  -22.0554   32.3488 C   0  0  0  0  0  0  0  0  0  0  0  0
  -12.0178  -22.3017   31.2137 C   0  0  0  0  0  0  0  0  0  0  0  0
  -11.3734  -22.9580   30.1828 N   0  0  0  0  0  0  0  0  0  0  0  0
  -13.4675  -27.0844   27.4171 C   0  0  0  0  0  0  0  0  0  0  0  0
  -12.9598  -26.3411   26.4481 N   0  0  0  0  0  0  0  0  0  0  0  0
  -13.9629  -26.0253   25.5662 C   0  0  0  0  0  0  0  0  0  0  0  0
  -15.1480  -26.6973   25.7447 C   0  0  0  0  0  0  0  0  0  0  0  0
  -15.0448  -27.6953   27.1260 S   0  0  0  0  0  0  0  0  0  0  0  0
  -13.0272  -30.0511   29.0515 H   0  0  0  0  0  0  0  0  0  0  0  0
  -12.5029  -29.6738   27.4031 H   0  0  0  0  0  0  0  0  0  0  0  0
  -11.3603  -30.3703   28.5461 H   0  0  0  0  0  0  0  0  0  0  0  0
  -10.8805  -27.9803   28.3913 H   0  0  0  0  0  0  0  0  0  0  0  0
  -11.4880  -28.3510   29.9758 H   0  0  0  0  0  0  0  0  0  0  0  0
  -13.6469  -27.3444   29.5504 H   0  0  0  0  0  0  0  0  0  0  0  0
  -11.2770  -25.7970   28.9463 H   0  0  0  0  0  0  0  0  0  0  0  0
  -10.7042  -23.9489   27.1939 H   0  0  0  0  0  0  0  0  0  0  0  0
   -8.3401  -23.4697   31.4509 H   0  0  0  0  0  0  0  0  0  0  0  0
   -7.9167  -22.7571   34.9450 H   0  0  0  0  0  0  0  0  0  0  0  0
   -7.4759  -22.6898   33.2508 H   0  0  0  0  0  0  0  0  0  0  0  0
   -8.3115  -24.1463   33.9054 H   0  0  0  0  0  0  0  0  0  0  0  0
  -11.8119  -21.5568   33.1918 H   0  0  0  0  0  0  0  0  0  0  0  0
  -13.0513  -22.0240   31.0665 H   0  0  0  0  0  0  0  0  0  0  0  0
  -13.8014  -25.2896   24.7922 H   0  0  0  0  0  0  0  0  0  0  0  0
  -16.0527  -26.6254   25.1581 H   0  0  0  0  0  0  0  0  0  0  0  0
  1  2  1  0
  2  3  1  0
  3  4  1  0
  4  5  1  0
  5  6  2  0
  5  7  1  0
  7  8  2  0
  8  9  1  0
  9 10  2  0
 10 11  1  0
 11 12  2  0
 12 13  1  0
 13 14  1  0
 12 15  1  0
 15 16  2  0
 16 17  1  0
  3 18  1  0
 18 19  2  0
 19 20  1  0
 20 21  2  0
 21 22  1  0
 17  7  1  0
 22 18  1  0
 17 10  1  0
  1 23  1  0
  1 24  1  0
  1 25  1  0
  2 26  1  0
  2 27  1  0
  3 28  1  0
  4 29  1  0
  8 30  1  0
 11 31  1  0
 14 32  1  0
 14 33  1  0
 14 34  1  0
 15 35  1  0
 16 36  1  0
 20 37  1  0
 21 38  1  0
M  END
>  <Energy>  (602) 
26.405979466813122

>  <compound_id>  (602) 
5602

>  <target_id>  (602) 
1

>  <reference_id>  (602) 
88

>  <inspiration_ids>  (602) 
[45, 88]

>  <energy_score>  (602) 
-19.814299163297278

>  <distance_score>  (602) 
4.548976365481267

>  <path>  (602) 
/opt/xchem-fragalysis-2/maxwin/BulkDock/SCRATCH/511018/C5602-P88/C5602-P88.minimised.mol

>  <scratch_subdir>  (602) 
/opt/xchem-fragalysis-2/maxwin/BulkDock/SCRATCH/511018/C5602-P88

>  <fragmenstein_runtime>  (602) 
16.269585609436035

>  <fragmenstein_outcome>  (602) 
too moved

>  <fragmenstein_mode>  (602) 
expansion

>  <fragmenstein_error>  (602) 


$$$$
C5603-P45
     RDKit          3D

 38 40  0  0  0  0  0  0  0  0999 V2000
  -12.1764  -27.6963   29.1176 C   0  0  0  0  0  0  0  0  0  0  0  0
  -12.8336  -26.3401   28.9461 C   0  0  0  0  0  0  0  0  0  0  0  0
  -11.9849  -25.1207   28.5300 C   0  0  0  0  0  0  0  0  0  0  0  0
  -10.7859  -24.5117   29.4616 N   0  0  0  0  0  0  0  0  0  0  0  0
  -11.1465  -23.1853   29.9501 C   0  0  0  0  0  0  0  0  0  0  0  0
  -10.9467  -22.0966   29.4722 O   0  0  0  0  0  0  0  0  0  0  0  0
  -11.7723  -23.0722   31.3271 C   0  0  0  0  0  0  0  0  0  0  0  0
  -11.6847  -21.8605   32.0020 C   0  0  0  0  0  0  0  0  0  0  0  0
  -10.5706  -21.9799   32.8124 N   0  0  0  0  0  0  0  0  0  0  0  0
  -10.1999  -23.2725   32.7338 C   0  0  0  0  0  0  0  0  0  0  0  0
   -9.2544  -24.2935   33.0878 C   0  0  0  0  0  0  0  0  0  0  0  0
   -9.8719  -25.3805   33.6085 C   0  0  0  0  0  0  0  0  0  0  0  0
  -10.0658  -26.5513   32.9371 O   0  0  0  0  0  0  0  0  0  0  0  0
   -9.3541  -26.7019   31.7345 C   0  0  0  0  0  0  0  0  0  0  0  0
  -11.0433  -25.1212   34.3893 C   0  0  0  0  0  0  0  0  0  0  0  0
  -11.8442  -24.1888   33.8543 C   0  0  0  0  0  0  0  0  0  0  0  0
  -11.4169  -23.7673   32.5503 N   0  0  0  0  0  0  0  0  0  0  0  0
   -9.9924  -24.9095   28.3235 C   0  0  0  0  0  0  0  0  0  0  0  0
   -9.2151  -24.0497   27.7048 N   0  0  0  0  0  0  0  0  0  0  0  0
   -8.1539  -24.6725   27.0721 C   0  0  0  0  0  0  0  0  0  0  0  0
   -8.1280  -26.0388   27.1700 C   0  0  0  0  0  0  0  0  0  0  0  0
   -9.4064  -26.5398   28.1742 S   0  0  0  0  0  0  0  0  0  0  0  0
  -11.7852  -28.0737   28.1688 H   0  0  0  0  0  0  0  0  0  0  0  0
  -11.3897  -27.6833   29.8710 H   0  0  0  0  0  0  0  0  0  0  0  0
  -12.9255  -28.4226   29.4537 H   0  0  0  0  0  0  0  0  0  0  0  0
  -13.5661  -26.5026   28.1494 H   0  0  0  0  0  0  0  0  0  0  0  0
  -13.4625  -26.0900   29.7972 H   0  0  0  0  0  0  0  0  0  0  0  0
  -11.8105  -25.1786   27.4339 H   0  0  0  0  0  0  0  0  0  0  0  0
  -12.6704  -24.2749   28.5368 H   0  0  0  0  0  0  0  0  0  0  0  0
  -11.9829  -20.8880   31.6936 H   0  0  0  0  0  0  0  0  0  0  0  0
   -8.4493  -24.4799   32.4055 H   0  0  0  0  0  0  0  0  0  0  0  0
   -8.2973  -26.5759   31.9460 H   0  0  0  0  0  0  0  0  0  0  0  0
   -9.5336  -27.7037   31.3401 H   0  0  0  0  0  0  0  0  0  0  0  0
   -9.6786  -25.9749   31.0026 H   0  0  0  0  0  0  0  0  0  0  0  0
  -11.1718  -25.6879   35.2835 H   0  0  0  0  0  0  0  0  0  0  0  0
  -12.7559  -23.8318   34.3122 H   0  0  0  0  0  0  0  0  0  0  0  0
   -7.4199  -24.0736   26.5469 H   0  0  0  0  0  0  0  0  0  0  0  0
   -7.4131  -26.7323   26.7474 H   0  0  0  0  0  0  0  0  0  0  0  0
  1  2  1  0
  2  3  1  0
  3  4  1  0
  4  5  1  0
  5  6  2  0
  5  7  1  0
  7  8  2  0
  8  9  1  0
  9 10  2  0
 10 11  1  0
 11 12  2  0
 12 13  1  0
 13 14  1  0
 12 15  1  0
 15 16  2  0
 16 17  1  0
  4 18  1  0
 18 19  2  0
 19 20  1  0
 20 21  2  0
 21 22  1  0
 17  7  1  0
 22 18  1  0
 17 10  1  0
  1 23  1  0
  1 24  1  0
  1 25  1  0
  2 26  1  0
  2 27  1  0
  3 28  1  0
  3 29  1  0
  8 30  1  0
 11 31  1  0
 14 32  1  0
 14 33  1  0
 14 34  1  0
 15 35  1  0
 16 36  1  0
 20 37  1  0
 21 38  1  0
M  END
>  <Energy>  (603) 
258.56195029162706

>  <compound_id>  (603) 
5603

>  <target_id>  (603) 
1

>  <reference_id>  (603) 
45

>  <inspiration_ids>  (603) 
[45, 88]

>  <energy_score>  (603) 
182.21693540075705

>  <distance_score>  (603) 
3.5049130576460747

>  <path>  (603) 
/opt/xchem-fragalysis-2/maxwin/BulkDock/SCRATCH/511018/C5603-P45/C5603-P45.minimised.mol

>  <scratch_subdir>  (603) 
/opt/xchem-fragalysis-2/maxwin/BulkDock/SCRATCH/511018/C5603-P45

>  <fragmenstein_runtime>  (603) 
10.288399457931519

>  <fragmenstein_outcome>  (603) 
too moved

>  <fragmenstein_mode>  (603) 
expansion

>  <fragmenstein_error>  (603) 


$$$$
C5603-P88
     RDKit          3D

 38 40  0  0  0  0  0  0  0  0999 V2000
  -13.7315  -26.5931   25.9718 C   0  0  0  0  0  0  0  0  0  0  0  0
  -14.0250  -25.5150   26.9964 C   0  0  0  0  0  0  0  0  0  0  0  0
  -13.6961  -25.8821   28.4625 C   0  0  0  0  0  0  0  0  0  0  0  0
  -12.1383  -25.9201   28.9021 N   0  0  0  0  0  0  0  0  0  0  0  0
  -11.3775  -25.0362   28.0933 C   0  0  0  0  0  0  0  0  0  0  0  0
  -10.7980  -25.2260   27.0611 O   0  0  0  0  0  0  0  0  0  0  0  0
  -11.3051  -23.7804   28.7938 C   0  0  0  0  0  0  0  0  0  0  0  0
  -11.5039  -22.4791   28.3972 C   0  0  0  0  0  0  0  0  0  0  0  0
  -11.4818  -21.6257   29.4808 N   0  0  0  0  0  0  0  0  0  0  0  0
  -11.1103  -22.3660   30.5047 C   0  0  0  0  0  0  0  0  0  0  0  0
  -10.7907  -22.0505   31.8593 C   0  0  0  0  0  0  0  0  0  0  0  0
  -10.2185  -22.9907   32.6407 C   0  0  0  0  0  0  0  0  0  0  0  0
   -9.7526  -22.7312   33.9048 O   0  0  0  0  0  0  0  0  0  0  0  0
   -8.3303  -22.8379   33.9054 C   0  0  0  0  0  0  0  0  0  0  0  0
  -10.0300  -24.3535   32.1872 C   0  0  0  0  0  0  0  0  0  0  0  0
  -10.3722  -24.6570   30.9352 C   0  0  0  0  0  0  0  0  0  0  0  0
  -10.9095  -23.6772   30.1086 N   0  0  0  0  0  0  0  0  0  0  0  0
  -12.3568  -27.3054   28.7956 C   0  0  0  0  0  0  0  0  0  0  0  0
  -11.9499  -28.1288   27.8638 N   0  0  0  0  0  0  0  0  0  0  0  0
  -12.0488  -29.4301   28.3086 C   0  0  0  0  0  0  0  0  0  0  0  0
  -12.4368  -29.5843   29.6176 C   0  0  0  0  0  0  0  0  0  0  0  0
  -12.6103  -28.0528   30.3505 S   0  0  0  0  0  0  0  0  0  0  0  0
  -14.1533  -27.5557   26.2743 H   0  0  0  0  0  0  0  0  0  0  0  0
  -14.1879  -26.3178   25.0161 H   0  0  0  0  0  0  0  0  0  0  0  0
  -12.6612  -26.6998   25.8036 H   0  0  0  0  0  0  0  0  0  0  0  0
  -13.5277  -24.5848   26.7011 H   0  0  0  0  0  0  0  0  0  0  0  0
  -15.1006  -25.2989   26.9532 H   0  0  0  0  0  0  0  0  0  0  0  0
  -14.0314  -24.9994   29.0303 H   0  0  0  0  0  0  0  0  0  0  0  0
  -14.3792  -26.6645   28.8423 H   0  0  0  0  0  0  0  0  0  0  0  0
  -11.7260  -22.1191   27.4003 H   0  0  0  0  0  0  0  0  0  0  0  0
  -10.9377  -21.0356   32.2080 H   0  0  0  0  0  0  0  0  0  0  0  0
   -7.9874  -22.5324   34.8911 H   0  0  0  0  0  0  0  0  0  0  0  0
   -7.9893  -23.8653   33.7483 H   0  0  0  0  0  0  0  0  0  0  0  0
   -7.8927  -22.1755   33.1538 H   0  0  0  0  0  0  0  0  0  0  0  0
   -9.6121  -25.0989   32.8518 H   0  0  0  0  0  0  0  0  0  0  0  0
  -10.2275  -25.6419   30.5273 H   0  0  0  0  0  0  0  0  0  0  0  0
  -11.8150  -30.2464   27.6363 H   0  0  0  0  0  0  0  0  0  0  0  0
  -12.5808  -30.5027   30.1690 H   0  0  0  0  0  0  0  0  0  0  0  0
  1  2  1  0
  2  3  1  0
  3  4  1  0
  4  5  1  0
  5  6  2  0
  5  7  1  0
  7  8  2  0
  8  9  1  0
  9 10  2  0
 10 11  1  0
 11 12  2  0
 12 13  1  0
 13 14  1  0
 12 15  1  0
 15 16  2  0
 16 17  1  0
  4 18  1  0
 18 19  2  0
 19 20  1  0
 20 21  2  0
 21 22  1  0
 17  7  1  0
 22 18  1  0
 17 10  1  0
  1 23  1  0
  1 24  1  0
  1 25  1  0
  2 26  1  0
  2 27  1  0
  3 28  1  0
  3 29  1  0
  8 30  1  0
 11 31  1  0
 14 32  1  0
 14 33  1  0
 14 34  1  0
 15 35  1  0
 16 36  1  0
 20 37  1  0
 21 38  1  0
M  END
>  <Energy>  (604) 
79.702318258608656

>  <compound_id>  (604) 
5603

>  <target_id>  (604) 
1

>  <reference_id>  (604) 
88

>  <inspiration_ids>  (604) 
[45, 88]

>  <energy_score>  (604) 
3.3573033677464537

>  <distance_score>  (604) 
4.610178129998788

>  <path>  (604) 
/opt/xchem-fragalysis-2/maxwin/BulkDock/SCRATCH/511018/C5603-P88/C5603-P88.minimised.mol

>  <scratch_subdir>  (604) 
/opt/xchem-fragalysis-2/maxwin/BulkDock/SCRATCH/511018/C5603-P88

>  <fragmenstein_runtime>  (604) 
14.07755970954895

>  <fragmenstein_outcome>  (604) 
too moved

>  <fragmenstein_mode>  (604) 
expansion

>  <fragmenstein_error>  (604) 


$$$$
C5604-P45
     RDKit          3D

 34 36  0  0  0  0  0  0  0  0999 V2000
   -9.9565  -25.5077   33.8335 C   0  0  0  0  0  0  0  0  0  0  0  0
  -10.3681  -24.2708   33.2633 O   0  0  0  0  0  0  0  0  0  0  0  0
  -10.3247  -24.2397   31.9004 C   0  0  0  0  0  0  0  0  0  0  0  0
  -11.2831  -23.2807   31.3167 C   0  0  0  0  0  0  0  0  0  0  0  0
  -11.6462  -23.4319   30.0250 C   0  0  0  0  0  0  0  0  0  0  0  0
  -10.9179  -24.3298   29.2483 N   0  0  0  0  0  0  0  0  0  0  0  0
  -10.9751  -24.7147   27.9292 C   0  0  0  0  0  0  0  0  0  0  0  0
  -11.7676  -25.8078   27.4437 C   0  0  0  0  0  0  0  0  0  0  0  0
  -12.7255  -25.7800   26.6865 O   0  0  0  0  0  0  0  0  0  0  0  0
  -11.1825  -26.9322   27.9324 O   0  0  0  0  0  0  0  0  0  0  0  0
  -11.1489  -28.0929   27.0958 C   0  0  0  0  0  0  0  0  0  0  0  0
  -11.8272  -29.2126   27.8669 C   0  0  0  0  0  0  0  0  0  0  0  0
   -9.7021  -28.4378   26.7703 C   0  0  0  0  0  0  0  0  0  0  0  0
   -9.3647  -29.4584   26.0115 N   0  0  0  0  0  0  0  0  0  0  0  0
   -8.0047  -29.4711   25.7877 C   0  0  0  0  0  0  0  0  0  0  0  0
   -7.2857  -28.4856   26.4165 C   0  0  0  0  0  0  0  0  0  0  0  0
   -8.3588  -27.5094   27.2904 S   0  0  0  0  0  0  0  0  0  0  0  0
   -9.6348  -24.5758   27.5887 C   0  0  0  0  0  0  0  0  0  0  0  0
   -8.8622  -24.8315   28.7074 N   0  0  0  0  0  0  0  0  0  0  0  0
   -9.7307  -24.8945   29.6989 C   0  0  0  0  0  0  0  0  0  0  0  0
   -9.5874  -25.0486   31.1015 C   0  0  0  0  0  0  0  0  0  0  0  0
   -8.8668  -25.5248   33.9171 H   0  0  0  0  0  0  0  0  0  0  0  0
  -10.3888  -25.5912   34.8339 H   0  0  0  0  0  0  0  0  0  0  0  0
  -10.3202  -26.3697   33.2690 H   0  0  0  0  0  0  0  0  0  0  0  0
  -11.7264  -22.5414   31.9771 H   0  0  0  0  0  0  0  0  0  0  0  0
  -12.4131  -22.8488   29.5349 H   0  0  0  0  0  0  0  0  0  0  0  0
  -11.6739  -27.9134   26.1509 H   0  0  0  0  0  0  0  0  0  0  0  0
  -11.5049  -29.2350   28.9117 H   0  0  0  0  0  0  0  0  0  0  0  0
  -11.6539  -30.2008   27.4321 H   0  0  0  0  0  0  0  0  0  0  0  0
  -12.9087  -29.0362   27.8967 H   0  0  0  0  0  0  0  0  0  0  0  0
   -7.5870  -30.2236   25.1332 H   0  0  0  0  0  0  0  0  0  0  0  0
   -6.2224  -28.2970   26.3735 H   0  0  0  0  0  0  0  0  0  0  0  0
   -9.1880  -24.6601   26.6055 H   0  0  0  0  0  0  0  0  0  0  0  0
   -8.8575  -25.7463   31.4887 H   0  0  0  0  0  0  0  0  0  0  0  0
  1  2  1  0
  2  3  1  0
  3  4  1  0
  4  5  2  0
  5  6  1  0
  6  7  1  0
  7  8  1  0
  8  9  2  0
  8 10  1  0
 10 11  1  0
 11 12  1  0
 11 13  1  0
 13 14  2  0
 14 15  1  0
 15 16  2  0
 16 17  1  0
  7 18  2  0
 18 19  1  0
 19 20  2  0
 20 21  1  0
 21  3  2  0
 20  6  1  0
 17 13  1  0
  1 22  1  0
  1 23  1  0
  1 24  1  0
  4 25  1  0
  5 26  1  0
 11 27  1  0
 12 28  1  0
 12 29  1  0
 12 30  1  0
 15 31  1  0
 16 32  1  0
 18 33  1  0
 21 34  1  0
M  END
>  <Energy>  (605) 
69.429766400843803

>  <compound_id>  (605) 
5604

>  <target_id>  (605) 
1

>  <reference_id>  (605) 
45

>  <inspiration_ids>  (605) 
[45, 88]

>  <energy_score>  (605) 
19.092244752956503

>  <distance_score>  (605) 
3.3412455271729486

>  <path>  (605) 
/opt/xchem-fragalysis-2/maxwin/BulkDock/SCRATCH/511018/C5604-P45/C5604-P45.minimised.mol

>  <scratch_subdir>  (605) 
/opt/xchem-fragalysis-2/maxwin/BulkDock/SCRATCH/511018/C5604-P45

>  <fragmenstein_runtime>  (605) 
6.7837138175964355

>  <fragmenstein_outcome>  (605) 
too moved

>  <fragmenstein_mode>  (605) 
expansion

>  <fragmenstein_error>  (605) 


$$$$
C5604-P88
     RDKit          3D

 34 36  0  0  0  0  0  0  0  0999 V2000
   -8.1441  -23.2159   33.4793 C   0  0  0  0  0  0  0  0  0  0  0  0
   -9.5140  -22.8387   33.4551 O   0  0  0  0  0  0  0  0  0  0  0  0
  -10.0928  -23.2844   32.3008 C   0  0  0  0  0  0  0  0  0  0  0  0
  -10.2289  -24.7126   32.2003 C   0  0  0  0  0  0  0  0  0  0  0  0
  -10.7870  -25.2274   31.1015 C   0  0  0  0  0  0  0  0  0  0  0  0
  -11.1363  -24.4068   30.0398 N   0  0  0  0  0  0  0  0  0  0  0  0
  -11.5976  -24.7327   28.7754 C   0  0  0  0  0  0  0  0  0  0  0  0
  -11.8094  -26.0481   28.2247 C   0  0  0  0  0  0  0  0  0  0  0  0
  -12.6614  -26.3428   27.4000 O   0  0  0  0  0  0  0  0  0  0  0  0
  -10.9288  -26.9303   28.7684 O   0  0  0  0  0  0  0  0  0  0  0  0
  -11.0580  -28.3422   28.4931 C   0  0  0  0  0  0  0  0  0  0  0  0
  -11.6764  -28.9994   29.6728 C   0  0  0  0  0  0  0  0  0  0  0  0
   -9.6817  -28.9863   28.0502 C   0  0  0  0  0  0  0  0  0  0  0  0
   -9.5557  -30.2650   27.7847 N   0  0  0  0  0  0  0  0  0  0  0  0
   -8.5754  -30.4880   26.8294 C   0  0  0  0  0  0  0  0  0  0  0  0
   -8.0064  -29.3811   26.2603 C   0  0  0  0  0  0  0  0  0  0  0  0
   -8.4648  -28.0312   27.1619 S   0  0  0  0  0  0  0  0  0  0  0  0
  -11.8223  -23.5028   28.1805 C   0  0  0  0  0  0  0  0  0  0  0  0
  -11.4993  -22.4620   29.0172 N   0  0  0  0  0  0  0  0  0  0  0  0
  -11.0746  -23.0246   30.1244 C   0  0  0  0  0  0  0  0  0  0  0  0
  -10.5730  -22.4740   31.3375 C   0  0  0  0  0  0  0  0  0  0  0  0
   -7.7274  -22.7979   34.3934 H   0  0  0  0  0  0  0  0  0  0  0  0
   -8.0038  -24.3002   33.5275 H   0  0  0  0  0  0  0  0  0  0  0  0
   -7.6075  -22.7995   32.6261 H   0  0  0  0  0  0  0  0  0  0  0  0
   -9.9325  -25.3419   33.0300 H   0  0  0  0  0  0  0  0  0  0  0  0
  -10.9776  -26.2805   31.0041 H   0  0  0  0  0  0  0  0  0  0  0  0
  -11.7937  -28.5093   27.6963 H   0  0  0  0  0  0  0  0  0  0  0  0
  -12.6690  -28.5662   29.8547 H   0  0  0  0  0  0  0  0  0  0  0  0
  -11.1383  -28.8266   30.6020 H   0  0  0  0  0  0  0  0  0  0  0  0
  -11.8339  -30.0702   29.5137 H   0  0  0  0  0  0  0  0  0  0  0  0
   -8.3693  -31.5052   26.5181 H   0  0  0  0  0  0  0  0  0  0  0  0
   -7.2770  -29.3463   25.4618 H   0  0  0  0  0  0  0  0  0  0  0  0
  -12.1969  -23.3102   27.1806 H   0  0  0  0  0  0  0  0  0  0  0  0
  -10.5428  -21.3972   31.4485 H   0  0  0  0  0  0  0  0  0  0  0  0
  1  2  1  0
  2  3  1  0
  3  4  1  0
  4  5  2  0
  5  6  1  0
  6  7  1  0
  7  8  1  0
  8  9  2  0
  8 10  1  0
 10 11  1  0
 11 12  1  0
 11 13  1  0
 13 14  2  0
 14 15  1  0
 15 16  2  0
 16 17  1  0
  7 18  2  0
 18 19  1  0
 19 20  2  0
 20 21  1  0
 21  3  2  0
 20  6  1  0
 17 13  1  0
  1 22  1  0
  1 23  1  0
  1 24  1  0
  4 25  1  0
  5 26  1  0
 11 27  1  0
 12 28  1  0
 12 29  1  0
 12 30  1  0
 15 31  1  0
 16 32  1  0
 18 33  1  0
 21 34  1  0
M  END
>  <Energy>  (606) 
27.593584834957259

>  <compound_id>  (606) 
5604

>  <target_id>  (606) 
1

>  <reference_id>  (606) 
88

>  <inspiration_ids>  (606) 
[45, 88]

>  <energy_score>  (606) 
-53.09599243073876

>  <distance_score>  (606) 
3.645574286562494

>  <path>  (606) 
/opt/xchem-fragalysis-2/maxwin/BulkDock/SCRATCH/511018/C5604-P88/C5604-P88.minimised.mol

>  <scratch_subdir>  (606) 
/opt/xchem-fragalysis-2/maxwin/BulkDock/SCRATCH/511018/C5604-P88

>  <fragmenstein_runtime>  (606) 
9.769424200057983

>  <fragmenstein_outcome>  (606) 
too moved

>  <fragmenstein_mode>  (606) 
expansion

>  <fragmenstein_error>  (606) 


$$$$
C5605-P45
     RDKit          3D

 25 27  0  0  0  0  0  0  0  0999 V2000
  -10.5338  -26.1120   28.1200 O   0  0  0  0  0  0  0  0  0  0  0  0
  -10.1669  -25.0210   28.2922 C   0  0  0  0  0  0  0  0  0  0  0  0
   -8.8160  -24.3638   27.9780 N   0  0  0  0  0  0  0  0  0  0  0  0
   -7.6748  -24.8948   27.5046 C   0  0  0  0  0  0  0  0  0  0  0  0
   -6.5737  -24.1897   27.4997 N   0  0  0  0  0  0  0  0  0  0  0  0
   -5.5207  -25.0237   27.2108 C   0  0  0  0  0  0  0  0  0  0  0  0
   -5.8547  -26.3233   26.8996 C   0  0  0  0  0  0  0  0  0  0  0  0
   -7.5583  -26.5152   27.0261 S   0  0  0  0  0  0  0  0  0  0  0  0
  -10.9456  -24.0266   28.9763 C   0  0  0  0  0  0  0  0  0  0  0  0
  -11.6539  -22.9672   28.4471 C   0  0  0  0  0  0  0  0  0  0  0  0
  -12.0566  -22.0969   29.4270 N   0  0  0  0  0  0  0  0  0  0  0  0
  -11.6445  -22.6283   30.5544 C   0  0  0  0  0  0  0  0  0  0  0  0
  -11.7772  -22.1854   31.8997 C   0  0  0  0  0  0  0  0  0  0  0  0
  -11.2450  -22.9044   32.9034 C   0  0  0  0  0  0  0  0  0  0  0  0
  -10.4025  -24.0568   32.6537 C   0  0  0  0  0  0  0  0  0  0  0  0
  -10.2522  -24.4817   31.3869 C   0  0  0  0  0  0  0  0  0  0  0  0
  -10.9393  -23.8123   30.3416 N   0  0  0  0  0  0  0  0  0  0  0  0
   -8.8657  -23.3774   28.1830 H   0  0  0  0  0  0  0  0  0  0  0  0
   -4.5097  -24.6537   27.2683 H   0  0  0  0  0  0  0  0  0  0  0  0
   -5.1986  -27.1397   26.6284 H   0  0  0  0  0  0  0  0  0  0  0  0
  -11.8494  -22.7594   27.4011 H   0  0  0  0  0  0  0  0  0  0  0  0
  -12.4140  -21.3417   32.1195 H   0  0  0  0  0  0  0  0  0  0  0  0
  -11.4827  -22.6585   33.9343 H   0  0  0  0  0  0  0  0  0  0  0  0
   -9.9427  -24.5865   33.4796 H   0  0  0  0  0  0  0  0  0  0  0  0
   -9.6545  -25.3504   31.1305 H   0  0  0  0  0  0  0  0  0  0  0  0
  1  2  2  0
  2  3  1  0
  3  4  1  0
  4  5  2  0
  5  6  1  0
  6  7  2  0
  7  8  1  0
  2  9  1  0
  9 10  2  0
 10 11  1  0
 11 12  2  0
 12 13  1  0
 13 14  2  0
 14 15  1  0
 15 16  2  0
 16 17  1  0
  8  4  1  0
 17  9  1  0
 17 12  1  0
  3 18  1  0
  6 19  1  0
  7 20  1  0
 10 21  1  0
 13 22  1  0
 14 23  1  0
 15 24  1  0
 16 25  1  0
M  END
>  <Energy>  (607) 
-10.388802105189765

>  <compound_id>  (607) 
5605

>  <target_id>  (607) 
1

>  <reference_id>  (607) 
45

>  <inspiration_ids>  (607) 
[45, 88]

>  <energy_score>  (607) 
-42.12992840494553

>  <distance_score>  (607) 
2.059537502155234

>  <path>  (607) 
/opt/xchem-fragalysis-2/maxwin/BulkDock/SCRATCH/511018/C5605-P45/C5605-P45.minimised.mol

>  <scratch_subdir>  (607) 
/opt/xchem-fragalysis-2/maxwin/BulkDock/SCRATCH/511018/C5605-P45

>  <fragmenstein_runtime>  (607) 
5.242163419723511

>  <fragmenstein_outcome>  (607) 
too moved

>  <fragmenstein_mode>  (607) 
expansion

>  <fragmenstein_error>  (607) 


$$$$
C5605-P88
     RDKit          3D

 25 27  0  0  0  0  0  0  0  0999 V2000
   -8.7652  -24.4152   29.4858 O   0  0  0  0  0  0  0  0  0  0  0  0
   -9.9049  -24.5001   29.2847 C   0  0  0  0  0  0  0  0  0  0  0  0
  -10.6950  -25.5269   28.4718 N   0  0  0  0  0  0  0  0  0  0  0  0
  -10.2899  -26.6465   27.8525 C   0  0  0  0  0  0  0  0  0  0  0  0
   -9.1229  -26.7775   27.2521 N   0  0  0  0  0  0  0  0  0  0  0  0
   -8.6051  -28.0904   27.3297 C   0  0  0  0  0  0  0  0  0  0  0  0
   -9.4419  -28.9827   27.9964 C   0  0  0  0  0  0  0  0  0  0  0  0
  -10.9675  -28.1402   28.4344 S   0  0  0  0  0  0  0  0  0  0  0  0
  -10.7641  -23.4959   29.8020 C   0  0  0  0  0  0  0  0  0  0  0  0
  -11.6749  -22.7047   29.1418 C   0  0  0  0  0  0  0  0  0  0  0  0
  -12.2477  -21.8140   29.9981 N   0  0  0  0  0  0  0  0  0  0  0  0
  -11.6420  -21.9994   31.1520 C   0  0  0  0  0  0  0  0  0  0  0  0
  -11.7911  -21.3431   32.4011 C   0  0  0  0  0  0  0  0  0  0  0  0
  -11.0215  -21.6887   33.4494 C   0  0  0  0  0  0  0  0  0  0  0  0
  -10.0097  -22.7201   33.3391 C   0  0  0  0  0  0  0  0  0  0  0  0
   -9.8802  -23.3701   32.1714 C   0  0  0  0  0  0  0  0  0  0  0  0
  -10.6992  -23.0134   31.0869 N   0  0  0  0  0  0  0  0  0  0  0  0
  -11.6655  -25.2550   28.4385 H   0  0  0  0  0  0  0  0  0  0  0  0
   -7.6666  -28.3054   26.8454 H   0  0  0  0  0  0  0  0  0  0  0  0
   -9.3579  -30.0449   28.1464 H   0  0  0  0  0  0  0  0  0  0  0  0
  -11.9278  -22.7117   28.0876 H   0  0  0  0  0  0  0  0  0  0  0  0
  -12.5682  -20.5929   32.4984 H   0  0  0  0  0  0  0  0  0  0  0  0
  -11.1672  -21.2119   34.4155 H   0  0  0  0  0  0  0  0  0  0  0  0
   -9.3817  -22.9416   34.1939 H   0  0  0  0  0  0  0  0  0  0  0  0
   -9.1413  -24.1466   32.0127 H   0  0  0  0  0  0  0  0  0  0  0  0
  1  2  2  0
  2  3  1  0
  3  4  1  0
  4  5  2  0
  5  6  1  0
  6  7  2  0
  7  8  1  0
  2  9  1  0
  9 10  2  0
 10 11  1  0
 11 12  2  0
 12 13  1  0
 13 14  2  0
 14 15  1  0
 15 16  2  0
 16 17  1  0
  8  4  1  0
 17  9  1  0
 17 12  1  0
  3 18  1  0
  6 19  1  0
  7 20  1  0
 10 21  1  0
 13 22  1  0
 14 23  1  0
 15 24  1  0
 16 25  1  0
M  END
>  <Energy>  (608) 
7.2195580268914794

>  <compound_id>  (608) 
5605

>  <target_id>  (608) 
1

>  <reference_id>  (608) 
88

>  <inspiration_ids>  (608) 
[45, 88]

>  <energy_score>  (608) 
-24.521568272865636

>  <distance_score>  (608) 
3.2651770597185314

>  <path>  (608) 
/opt/xchem-fragalysis-2/maxwin/BulkDock/SCRATCH/511018/C5605-P88/C5605-P88.minimised.mol

>  <scratch_subdir>  (608) 
/opt/xchem-fragalysis-2/maxwin/BulkDock/SCRATCH/511018/C5605-P88

>  <fragmenstein_runtime>  (608) 
7.4465012550354

>  <fragmenstein_outcome>  (608) 
too moved

>  <fragmenstein_mode>  (608) 
expansion

>  <fragmenstein_error>  (608) 


$$$$
C5606-P45
     RDKit          3D

 35 38  0  0  0  0  0  0  0  0999 V2000
   -7.9546  -23.7696   28.5323 O   0  0  0  0  0  0  0  0  0  0  0  0
   -8.4698  -24.8169   28.6184 C   0  0  0  0  0  0  0  0  0  0  0  0
   -9.2943  -25.4498   29.7928 N   0  0  0  0  0  0  0  0  0  0  0  0
   -9.7117  -24.8982   31.0098 C   0  0  0  0  0  0  0  0  0  0  0  0
   -9.3057  -25.4389   32.2116 C   0  0  0  0  0  0  0  0  0  0  0  0
   -9.8851  -24.9729   33.3874 C   0  0  0  0  0  0  0  0  0  0  0  0
  -10.7960  -23.9082   33.3761 C   0  0  0  0  0  0  0  0  0  0  0  0
  -11.1361  -23.2872   32.1917 C   0  0  0  0  0  0  0  0  0  0  0  0
  -10.7118  -23.8807   31.0065 C   0  0  0  0  0  0  0  0  0  0  0  0
  -11.3326  -23.4991   29.7502 C   0  0  0  0  0  0  0  0  0  0  0  0
  -11.2846  -22.3043   29.2162 N   0  0  0  0  0  0  0  0  0  0  0  0
  -11.5936  -22.4420   27.8904 C   0  0  0  0  0  0  0  0  0  0  0  0
  -12.0414  -23.6689   27.4731 C   0  0  0  0  0  0  0  0  0  0  0  0
  -12.0553  -24.7370   28.7986 S   0  0  0  0  0  0  0  0  0  0  0  0
   -8.5225  -25.7372   27.5498 C   0  0  0  0  0  0  0  0  0  0  0  0
   -9.6629  -26.0112   26.8471 C   0  0  0  0  0  0  0  0  0  0  0  0
   -9.7063  -27.3201   26.5473 N   0  0  0  0  0  0  0  0  0  0  0  0
   -8.4621  -27.7035   26.6734 C   0  0  0  0  0  0  0  0  0  0  0  0
   -7.8670  -28.8951   26.2527 C   0  0  0  0  0  0  0  0  0  0  0  0
   -6.5374  -28.9185   26.1346 C   0  0  0  0  0  0  0  0  0  0  0  0
   -5.6770  -27.8248   26.5505 C   0  0  0  0  0  0  0  0  0  0  0  0
   -6.2508  -26.7081   27.0223 C   0  0  0  0  0  0  0  0  0  0  0  0
   -7.6362  -26.6677   27.0991 N   0  0  0  0  0  0  0  0  0  0  0  0
   -9.6682  -26.3480   29.5007 H   0  0  0  0  0  0  0  0  0  0  0  0
   -8.5928  -26.2532   32.2445 H   0  0  0  0  0  0  0  0  0  0  0  0
   -9.6554  -25.4908   34.3134 H   0  0  0  0  0  0  0  0  0  0  0  0
  -11.3162  -23.6084   34.2839 H   0  0  0  0  0  0  0  0  0  0  0  0
  -11.8272  -22.4493   32.1909 H   0  0  0  0  0  0  0  0  0  0  0  0
  -11.4897  -21.6112   27.2200 H   0  0  0  0  0  0  0  0  0  0  0  0
  -12.3639  -23.9440   26.4784 H   0  0  0  0  0  0  0  0  0  0  0  0
  -10.5336  -25.4087   26.6989 H   0  0  0  0  0  0  0  0  0  0  0  0
   -8.4842  -29.7163   25.9058 H   0  0  0  0  0  0  0  0  0  0  0  0
   -6.1192  -29.7831   25.6506 H   0  0  0  0  0  0  0  0  0  0  0  0
   -4.6027  -27.9037   26.4234 H   0  0  0  0  0  0  0  0  0  0  0  0
   -5.6922  -25.8252   27.3062 H   0  0  0  0  0  0  0  0  0  0  0  0
  1  2  2  0
  2  3  1  0
  3  4  1  0
  4  5  2  0
  5  6  1  0
  6  7  2  0
  7  8  1  0
  8  9  2  0
  9 10  1  0
 10 11  2  0
 11 12  1  0
 12 13  2  0
 13 14  1  0
  2 15  1  0
 15 16  2  0
 16 17  1  0
 17 18  2  0
 18 19  1  0
 19 20  2  0
 20 21  1  0
 21 22  2  0
 22 23  1  0
  9  4  1  0
 14 10  1  0
 23 15  1  0
 23 18  1  0
  3 24  1  0
  5 25  1  0
  6 26  1  0
  7 27  1  0
  8 28  1  0
 12 29  1  0
 13 30  1  0
 16 31  1  0
 19 32  1  0
 20 33  1  0
 21 34  1  0
 22 35  1  0
M  END
>  <Energy>  (609) 
102.29825146077982

>  <compound_id>  (609) 
5606

>  <target_id>  (609) 
1

>  <reference_id>  (609) 
45

>  <inspiration_ids>  (609) 
[45, 88]

>  <energy_score>  (609) 
-38.43742060391287

>  <distance_score>  (609) 
1.893392979504501

>  <path>  (609) 
/opt/xchem-fragalysis-2/maxwin/BulkDock/SCRATCH/511018/C5606-P45/C5606-P45.minimised.mol

>  <scratch_subdir>  (609) 
/opt/xchem-fragalysis-2/maxwin/BulkDock/SCRATCH/511018/C5606-P45

>  <fragmenstein_runtime>  (609) 
4.4411680698394775

>  <fragmenstein_outcome>  (609) 
too moved

>  <fragmenstein_mode>  (609) 
expansion

>  <fragmenstein_error>  (609) 


$$$$
C5606-P88
     RDKit          3D

 35 38  0  0  0  0  0  0  0  0999 V2000
   -8.1462  -24.2397   29.7655 O   0  0  0  0  0  0  0  0  0  0  0  0
   -9.2815  -24.4078   29.7338 C   0  0  0  0  0  0  0  0  0  0  0  0
  -10.3223  -24.2156   30.7928 N   0  0  0  0  0  0  0  0  0  0  0  0
  -10.2218  -23.7011   32.0592 C   0  0  0  0  0  0  0  0  0  0  0  0
   -9.2419  -24.0102   32.9703 C   0  0  0  0  0  0  0  0  0  0  0  0
   -9.2846  -23.3363   34.1813 C   0  0  0  0  0  0  0  0  0  0  0  0
  -10.2808  -22.3925   34.4630 C   0  0  0  0  0  0  0  0  0  0  0  0
  -11.1598  -21.9747   33.4815 C   0  0  0  0  0  0  0  0  0  0  0  0
  -11.1115  -22.6113   32.2592 C   0  0  0  0  0  0  0  0  0  0  0  0
  -11.6724  -21.9683   31.0616 C   0  0  0  0  0  0  0  0  0  0  0  0
  -11.1921  -20.8405   30.5873 N   0  0  0  0  0  0  0  0  0  0  0  0
  -11.2025  -20.8971   29.2145 C   0  0  0  0  0  0  0  0  0  0  0  0
  -11.8667  -21.9618   28.6670 C   0  0  0  0  0  0  0  0  0  0  0  0
  -12.5742  -22.8805   29.9107 S   0  0  0  0  0  0  0  0  0  0  0  0
   -9.9621  -24.7725   28.5315 C   0  0  0  0  0  0  0  0  0  0  0  0
  -10.0883  -23.9466   27.4353 C   0  0  0  0  0  0  0  0  0  0  0  0
  -10.9025  -24.4766   26.4880 N   0  0  0  0  0  0  0  0  0  0  0  0
  -11.3439  -25.5840   27.0264 C   0  0  0  0  0  0  0  0  0  0  0  0
  -12.3612  -26.4749   26.6016 C   0  0  0  0  0  0  0  0  0  0  0  0
  -12.6284  -27.5856   27.3155 C   0  0  0  0  0  0  0  0  0  0  0  0
  -11.9518  -27.8599   28.5636 C   0  0  0  0  0  0  0  0  0  0  0  0
  -11.1245  -26.9243   29.0383 C   0  0  0  0  0  0  0  0  0  0  0  0
  -10.7711  -25.8324   28.2596 N   0  0  0  0  0  0  0  0  0  0  0  0
  -11.2388  -24.3801   30.3976 H   0  0  0  0  0  0  0  0  0  0  0  0
   -8.4641  -24.7347   32.7559 H   0  0  0  0  0  0  0  0  0  0  0  0
   -8.5200  -23.5307   34.9105 H   0  0  0  0  0  0  0  0  0  0  0  0
  -10.3606  -21.9465   35.4475 H   0  0  0  0  0  0  0  0  0  0  0  0
  -11.8441  -21.1499   33.6612 H   0  0  0  0  0  0  0  0  0  0  0  0
  -10.6946  -20.1326   28.6521 H   0  0  0  0  0  0  0  0  0  0  0  0
  -12.0194  -22.1792   27.6184 H   0  0  0  0  0  0  0  0  0  0  0  0
   -9.6510  -22.9670   27.2974 H   0  0  0  0  0  0  0  0  0  0  0  0
  -12.8960  -26.2496   25.6885 H   0  0  0  0  0  0  0  0  0  0  0  0
  -13.4001  -28.2768   26.9898 H   0  0  0  0  0  0  0  0  0  0  0  0
  -12.2520  -28.7217   29.1509 H   0  0  0  0  0  0  0  0  0  0  0  0
  -10.7605  -26.9660   30.0469 H   0  0  0  0  0  0  0  0  0  0  0  0
  1  2  2  0
  2  3  1  0
  3  4  1  0
  4  5  2  0
  5  6  1  0
  6  7  2  0
  7  8  1  0
  8  9  2  0
  9 10  1  0
 10 11  2  0
 11 12  1  0
 12 13  2  0
 13 14  1  0
  2 15  1  0
 15 16  2  0
 16 17  1  0
 17 18  2  0
 18 19  1  0
 19 20  2  0
 20 21  1  0
 21 22  2  0
 22 23  1  0
  9  4  1  0
 14 10  1  0
 23 15  1  0
 23 18  1  0
  3 24  1  0
  5 25  1  0
  6 26  1  0
  7 27  1  0
  8 28  1  0
 12 29  1  0
 13 30  1  0
 16 31  1  0
 19 32  1  0
 20 33  1  0
 21 34  1  0
 22 35  1  0
M  END
>  <Energy>  (610) 
94.34912809476694

>  <compound_id>  (610) 
5606

>  <target_id>  (610) 
1

>  <reference_id>  (610) 
88

>  <inspiration_ids>  (610) 
[45, 88]

>  <energy_score>  (610) 
-46.38654396992672

>  <distance_score>  (610) 
3.5413864051736827

>  <path>  (610) 
/opt/xchem-fragalysis-2/maxwin/BulkDock/SCRATCH/511018/C5606-P88/C5606-P88.minimised.mol

>  <scratch_subdir>  (610) 
/opt/xchem-fragalysis-2/maxwin/BulkDock/SCRATCH/511018/C5606-P88

>  <fragmenstein_runtime>  (610) 
8.183339834213257

>  <fragmenstein_outcome>  (610) 
too moved

>  <fragmenstein_mode>  (610) 
expansion

>  <fragmenstein_error>  (610) 


$$$$
C5607-P45
     RDKit          3D

 28 30  0  0  0  0  0  0  0  0999 V2000
   -9.7914  -26.9969   28.6061 O   0  0  0  0  0  0  0  0  0  0  0  0
   -9.6168  -25.8619   28.4345 C   0  0  0  0  0  0  0  0  0  0  0  0
   -8.4497  -25.1266   27.7757 N   0  0  0  0  0  0  0  0  0  0  0  0
   -7.2860  -25.5886   27.3043 C   0  0  0  0  0  0  0  0  0  0  0  0
   -6.9190  -26.8226   27.0992 N   0  0  0  0  0  0  0  0  0  0  0  0
   -5.5565  -26.8310   26.8907 C   0  0  0  0  0  0  0  0  0  0  0  0
   -4.9335  -25.6069   27.0007 C   0  0  0  0  0  0  0  0  0  0  0  0
   -6.1026  -24.3759   27.2017 S   0  0  0  0  0  0  0  0  0  0  0  0
  -10.5170  -24.8485   28.8875 C   0  0  0  0  0  0  0  0  0  0  0  0
  -11.3609  -24.0804   28.0988 C   0  0  0  0  0  0  0  0  0  0  0  0
  -11.6796  -24.3510   26.6518 C   0  0  0  0  0  0  0  0  0  0  0  0
  -10.5797  -24.7852   25.9762 F   0  0  0  0  0  0  0  0  0  0  0  0
  -12.1427  -23.2892   25.9709 F   0  0  0  0  0  0  0  0  0  0  0  0
  -12.6019  -25.3487   26.5363 F   0  0  0  0  0  0  0  0  0  0  0  0
  -11.8568  -23.0256   28.8476 N   0  0  0  0  0  0  0  0  0  0  0  0
  -11.4389  -23.2322   30.0777 C   0  0  0  0  0  0  0  0  0  0  0  0
  -11.6721  -22.5088   31.2811 C   0  0  0  0  0  0  0  0  0  0  0  0
  -11.1751  -22.9551   32.4524 C   0  0  0  0  0  0  0  0  0  0  0  0
  -10.2999  -24.1162   32.5139 C   0  0  0  0  0  0  0  0  0  0  0  0
  -10.0086  -24.7743   31.3751 C   0  0  0  0  0  0  0  0  0  0  0  0
  -10.6134  -24.3578   30.1642 N   0  0  0  0  0  0  0  0  0  0  0  0
   -8.5839  -24.1302   27.8686 H   0  0  0  0  0  0  0  0  0  0  0  0
   -5.0448  -27.7658   26.6943 H   0  0  0  0  0  0  0  0  0  0  0  0
   -3.8722  -25.4314   26.9347 H   0  0  0  0  0  0  0  0  0  0  0  0
  -12.3322  -21.6548   31.2477 H   0  0  0  0  0  0  0  0  0  0  0  0
  -11.4400  -22.4691   33.3875 H   0  0  0  0  0  0  0  0  0  0  0  0
   -9.9140  -24.4552   33.4667 H   0  0  0  0  0  0  0  0  0  0  0  0
   -9.3774  -25.6570   31.3551 H   0  0  0  0  0  0  0  0  0  0  0  0
  1  2  2  0
  2  3  1  0
  3  4  1  0
  4  5  2  0
  5  6  1  0
  6  7  2  0
  7  8  1  0
  2  9  1  0
  9 10  2  0
 10 11  1  0
 11 12  1  0
 11 13  1  0
 11 14  1  0
 10 15  1  0
 15 16  2  0
 16 17  1  0
 17 18  2  0
 18 19  1  0
 19 20  2  0
 20 21  1  0
  8  4  1  0
 21  9  1  0
 21 16  1  0
  3 22  1  0
  6 23  1  0
  7 24  1  0
 17 25  1  0
 18 26  1  0
 19 27  1  0
 20 28  1  0
M  END
>  <Energy>  (611) 
38.546351470476054

>  <compound_id>  (611) 
5607

>  <target_id>  (611) 
1

>  <reference_id>  (611) 
45

>  <inspiration_ids>  (611) 
[45, 88]

>  <energy_score>  (611) 
-85.58435325144737

>  <distance_score>  (611) 
2.251803897793379

>  <path>  (611) 
/opt/xchem-fragalysis-2/maxwin/BulkDock/SCRATCH/511018/C5607-P45/C5607-P45.minimised.mol

>  <scratch_subdir>  (611) 
/opt/xchem-fragalysis-2/maxwin/BulkDock/SCRATCH/511018/C5607-P45

>  <fragmenstein_runtime>  (611) 
7.966806173324585

>  <fragmenstein_outcome>  (611) 
too moved

>  <fragmenstein_mode>  (611) 
expansion

>  <fragmenstein_error>  (611) 


$$$$
C5607-P88
     RDKit          3D

 28 30  0  0  0  0  0  0  0  0999 V2000
  -13.5799  -23.3052   29.7516 O   0  0  0  0  0  0  0  0  0  0  0  0
  -12.6813  -22.8258   30.3701 C   0  0  0  0  0  0  0  0  0  0  0  0
  -11.5633  -23.4237   30.9900 N   0  0  0  0  0  0  0  0  0  0  0  0
  -11.1329  -24.6844   30.9900 C   0  0  0  0  0  0  0  0  0  0  0  0
  -11.3506  -25.5001   29.9903 N   0  0  0  0  0  0  0  0  0  0  0  0
  -10.2808  -25.2565   29.1477 C   0  0  0  0  0  0  0  0  0  0  0  0
   -9.1646  -24.7383   29.7933 C   0  0  0  0  0  0  0  0  0  0  0  0
   -9.4996  -24.6000   31.4899 S   0  0  0  0  0  0  0  0  0  0  0  0
  -12.5026  -21.4060   30.5287 C   0  0  0  0  0  0  0  0  0  0  0  0
  -11.4518  -20.8762   29.7696 C   0  0  0  0  0  0  0  0  0  0  0  0
  -10.9537  -21.4447   28.4506 C   0  0  0  0  0  0  0  0  0  0  0  0
   -9.7377  -22.0445   28.5829 F   0  0  0  0  0  0  0  0  0  0  0  0
  -10.8501  -20.5283   27.4926 F   0  0  0  0  0  0  0  0  0  0  0  0
  -11.7635  -22.4223   27.9619 F   0  0  0  0  0  0  0  0  0  0  0  0
  -10.6106  -20.2359   30.6650 N   0  0  0  0  0  0  0  0  0  0  0  0
  -11.1588  -20.3795   31.8425 C   0  0  0  0  0  0  0  0  0  0  0  0
  -10.6813  -20.4434   33.1655 C   0  0  0  0  0  0  0  0  0  0  0  0
  -11.5657  -20.3280   34.1731 C   0  0  0  0  0  0  0  0  0  0  0  0
  -12.9697  -20.0848   33.9040 C   0  0  0  0  0  0  0  0  0  0  0  0
  -13.4072  -20.3064   32.6550 C   0  0  0  0  0  0  0  0  0  0  0  0
  -12.4916  -20.6597   31.6825 N   0  0  0  0  0  0  0  0  0  0  0  0
  -11.0523  -22.7192   31.4952 H   0  0  0  0  0  0  0  0  0  0  0  0
  -10.3323  -25.5517   28.1062 H   0  0  0  0  0  0  0  0  0  0  0  0
   -8.1745  -24.5771   29.4195 H   0  0  0  0  0  0  0  0  0  0  0  0
   -9.6393  -20.6820   33.3248 H   0  0  0  0  0  0  0  0  0  0  0  0
  -11.2650  -20.4536   35.2060 H   0  0  0  0  0  0  0  0  0  0  0  0
  -13.6511  -19.8557   34.7140 H   0  0  0  0  0  0  0  0  0  0  0  0
  -14.4499  -20.2524   32.3859 H   0  0  0  0  0  0  0  0  0  0  0  0
  1  2  2  0
  2  3  1  0
  3  4  1  0
  4  5  2  0
  5  6  1  0
  6  7  2  0
  7  8  1  0
  2  9  1  0
  9 10  2  0
 10 11  1  0
 11 12  1  0
 11 13  1  0
 11 14  1  0
 10 15  1  0
 15 16  2  0
 16 17  1  0
 17 18  2  0
 18 19  1  0
 19 20  2  0
 20 21  1  0
  8  4  1  0
 21  9  1  0
 21 16  1  0
  3 22  1  0
  6 23  1  0
  7 24  1  0
 17 25  1  0
 18 26  1  0
 19 27  1  0
 20 28  1  0
M  END
>  <Energy>  (612) 
114.21554738737979

>  <compound_id>  (612) 
5607

>  <target_id>  (612) 
1

>  <reference_id>  (612) 
88

>  <inspiration_ids>  (612) 
[45, 88]

>  <energy_score>  (612) 
15.982416814026465

>  <distance_score>  (612) 
4.3305732322685335

>  <path>  (612) 
/opt/xchem-fragalysis-2/maxwin/BulkDock/SCRATCH/511018/C5607-P88/C5607-P88.minimised.mol

>  <scratch_subdir>  (612) 
/opt/xchem-fragalysis-2/maxwin/BulkDock/SCRATCH/511018/C5607-P88

>  <fragmenstein_runtime>  (612) 
13.748541831970215

>  <fragmenstein_outcome>  (612) 
too moved

>  <fragmenstein_mode>  (612) 
expansion

>  <fragmenstein_error>  (612) 


$$$$
C5601-P45
     RDKit          3D

 29 31  0  0  0  0  0  0  0  0999 V2000
  -11.7001  -22.1020   31.9330 C   0  0  0  0  0  0  0  0  0  0  0  0
  -12.6054  -22.4035   30.8692 O   0  0  0  0  0  0  0  0  0  0  0  0
  -12.0725  -23.1980   29.8810 C   0  0  0  0  0  0  0  0  0  0  0  0
  -11.0050  -22.6660   29.0895 C   0  0  0  0  0  0  0  0  0  0  0  0
  -10.3372  -23.5250   28.3062 C   0  0  0  0  0  0  0  0  0  0  0  0
  -10.8268  -24.8051   28.0775 N   0  0  0  0  0  0  0  0  0  0  0  0
  -10.3187  -25.8410   27.3376 C   0  0  0  0  0  0  0  0  0  0  0  0
   -9.0488  -25.7041   26.7191 C   0  0  0  0  0  0  0  0  0  0  0  0
   -8.8950  -24.7696   26.0070 O   0  0  0  0  0  0  0  0  0  0  0  0
   -8.1490  -26.6841   27.1496 N   0  0  0  0  0  0  0  0  0  0  0  0
   -6.8320  -26.8086   26.9599 C   0  0  0  0  0  0  0  0  0  0  0  0
   -6.1651  -27.9220   27.0356 N   0  0  0  0  0  0  0  0  0  0  0  0
   -4.8391  -27.5905   26.9194 C   0  0  0  0  0  0  0  0  0  0  0  0
   -4.5212  -26.2501   26.8825 C   0  0  0  0  0  0  0  0  0  0  0  0
   -5.9472  -25.3324   26.9248 S   0  0  0  0  0  0  0  0  0  0  0  0
  -11.2515  -26.8463   27.4082 C   0  0  0  0  0  0  0  0  0  0  0  0
  -12.2911  -26.4782   28.2176 N   0  0  0  0  0  0  0  0  0  0  0  0
  -11.9755  -25.2748   28.6452 C   0  0  0  0  0  0  0  0  0  0  0  0
  -12.5487  -24.4245   29.6053 C   0  0  0  0  0  0  0  0  0  0  0  0
  -11.0698  -21.2580   31.6506 H   0  0  0  0  0  0  0  0  0  0  0  0
  -12.2917  -21.7917   32.7999 H   0  0  0  0  0  0  0  0  0  0  0  0
  -11.1062  -22.9756   32.2211 H   0  0  0  0  0  0  0  0  0  0  0  0
  -10.7064  -21.6373   29.2172 H   0  0  0  0  0  0  0  0  0  0  0  0
   -9.4042  -23.2724   27.8408 H   0  0  0  0  0  0  0  0  0  0  0  0
   -8.6501  -27.3770   27.6851 H   0  0  0  0  0  0  0  0  0  0  0  0
   -4.1099  -28.3742   26.8970 H   0  0  0  0  0  0  0  0  0  0  0  0
   -3.5371  -25.8109   26.8262 H   0  0  0  0  0  0  0  0  0  0  0  0
  -11.2289  -27.8188   26.9333 H   0  0  0  0  0  0  0  0  0  0  0  0
  -13.4035  -24.8288   30.1296 H   0  0  0  0  0  0  0  0  0  0  0  0
  1  2  1  0
  2  3  1  0
  3  4  1  0
  4  5  2  0
  5  6  1  0
  6  7  1  0
  7  8  1  0
  8  9  2  0
  8 10  1  0
 10 11  1  0
 11 12  2  0
 12 13  1  0
 13 14  2  0
 14 15  1  0
  7 16  2  0
 16 17  1  0
 17 18  2  0
 18 19  1  0
 19  3  2  0
 18  6  1  0
 15 11  1  0
  1 20  1  0
  1 21  1  0
  1 22  1  0
  4 23  1  0
  5 24  1  0
 10 25  1  0
 13 26  1  0
 14 27  1  0
 16 28  1  0
 19 29  1  0
M  END
>  <Energy>  (613) 
-11.342746801892066

>  <compound_id>  (613) 
5601

>  <target_id>  (613) 
1

>  <reference_id>  (613) 
45

>  <inspiration_ids>  (613) 
[45, 88]

>  <energy_score>  (613) 
-41.45006232841078

>  <distance_score>  (613) 
3.42198433661052

>  <path>  (613) 
/opt/xchem-fragalysis-2/maxwin/BulkDock/SCRATCH/511018/C5601-P45/C5601-P45.minimised.mol

>  <scratch_subdir>  (613) 
/opt/xchem-fragalysis-2/maxwin/BulkDock/SCRATCH/511018/C5601-P45

>  <fragmenstein_runtime>  (613) 
9.609272241592407

>  <fragmenstein_outcome>  (613) 
too moved

>  <fragmenstein_mode>  (613) 
expansion

>  <fragmenstein_error>  (613) 


$$$$
C5601-P88
     RDKit          3D

 29 31  0  0  0  0  0  0  0  0999 V2000
  -11.5935  -20.3588   32.6085 C   0  0  0  0  0  0  0  0  0  0  0  0
  -11.3858  -20.3504   31.1968 O   0  0  0  0  0  0  0  0  0  0  0  0
  -11.2267  -21.5745   30.6020 C   0  0  0  0  0  0  0  0  0  0  0  0
  -10.7578  -21.4984   29.2193 C   0  0  0  0  0  0  0  0  0  0  0  0
  -10.1697  -22.5773   28.6646 C   0  0  0  0  0  0  0  0  0  0  0  0
  -10.2191  -23.7861   29.3419 N   0  0  0  0  0  0  0  0  0  0  0  0
   -9.7540  -25.0467   29.0506 C   0  0  0  0  0  0  0  0  0  0  0  0
   -8.6361  -25.6601   28.2738 C   0  0  0  0  0  0  0  0  0  0  0  0
   -9.0094  -26.3523   27.3502 O   0  0  0  0  0  0  0  0  0  0  0  0
   -7.2038  -25.4051   28.8298 N   0  0  0  0  0  0  0  0  0  0  0  0
   -5.6914  -25.9442   28.2831 C   0  0  0  0  0  0  0  0  0  0  0  0
   -5.3090  -26.7746   27.3005 N   0  0  0  0  0  0  0  0  0  0  0  0
   -3.6018  -26.5562   27.1044 C   0  0  0  0  0  0  0  0  0  0  0  0
   -2.9236  -25.9390   28.1110 C   0  0  0  0  0  0  0  0  0  0  0  0
   -4.2129  -25.5579   28.8449 S   0  0  0  0  0  0  0  0  0  0  0  0
  -10.7904  -25.8185   29.6004 C   0  0  0  0  0  0  0  0  0  0  0  0
  -11.4484  -25.1709   30.5958 N   0  0  0  0  0  0  0  0  0  0  0  0
  -11.0325  -23.9366   30.4690 C   0  0  0  0  0  0  0  0  0  0  0  0
  -11.3801  -22.7743   31.1898 C   0  0  0  0  0  0  0  0  0  0  0  0
  -10.7752  -20.8687   33.1283 H   0  0  0  0  0  0  0  0  0  0  0  0
  -11.6060  -19.3195   32.9495 H   0  0  0  0  0  0  0  0  0  0  0  0
  -12.5612  -20.8027   32.8585 H   0  0  0  0  0  0  0  0  0  0  0  0
  -10.8076  -20.5467   28.7005 H   0  0  0  0  0  0  0  0  0  0  0  0
   -9.7459  -22.5776   27.6725 H   0  0  0  0  0  0  0  0  0  0  0  0
   -7.2464  -24.7216   29.5410 H   0  0  0  0  0  0  0  0  0  0  0  0
   -3.1585  -26.4766   26.1016 H   0  0  0  0  0  0  0  0  0  0  0  0
   -1.9548  -25.6025   28.4029 H   0  0  0  0  0  0  0  0  0  0  0  0
  -10.9834  -26.8707   29.4213 H   0  0  0  0  0  0  0  0  0  0  0  0
  -11.7375  -22.8961   32.2019 H   0  0  0  0  0  0  0  0  0  0  0  0
  1  2  1  0
  2  3  1  0
  3  4  1  0
  4  5  2  0
  5  6  1  0
  6  7  1  0
  7  8  1  0
  8  9  2  0
  8 10  1  0
 10 11  1  0
 11 12  2  0
 12 13  1  0
 13 14  2  0
 14 15  1  0
  7 16  2  0
 16 17  1  0
 17 18  2  0
 18 19  1  0
 19  3  2  0
 18  6  1  0
 15 11  1  0
  1 20  1  0
  1 21  1  0
  1 22  1  0
  4 23  1  0
  5 24  1  0
 10 25  1  0
 13 26  1  0
 14 27  1  0
 16 28  1  0
 19 29  1  0
M  END
>  <Energy>  (614) 
145.59511538257618

>  <compound_id>  (614) 
5601

>  <target_id>  (614) 
1

>  <reference_id>  (614) 
88

>  <inspiration_ids>  (614) 
[45, 88]

>  <energy_score>  (614) 
115.48779985605643

>  <distance_score>  (614) 
3.3818716745884703

>  <path>  (614) 
/opt/xchem-fragalysis-2/maxwin/BulkDock/SCRATCH/511018/C5601-P88/C5601-P88.minimised.mol

>  <scratch_subdir>  (614) 
/opt/xchem-fragalysis-2/maxwin/BulkDock/SCRATCH/511018/C5601-P88

>  <fragmenstein_runtime>  (614) 
12.57555866241455

>  <fragmenstein_outcome>  (614) 
too moved

>  <fragmenstein_mode>  (614) 
expansion

>  <fragmenstein_error>  (614) 


$$$$
C5608-P45
     RDKit          3D

 28 30  0  0  0  0  0  0  0  0999 V2000
   -9.3998  -25.4258   31.7741 C   0  0  0  0  0  0  0  0  0  0  0  0
  -10.3599  -24.2816   31.8064 C   0  0  0  0  0  0  0  0  0  0  0  0
  -10.7124  -23.7724   32.9978 C   0  0  0  0  0  0  0  0  0  0  0  0
  -11.5361  -22.5998   33.0778 C   0  0  0  0  0  0  0  0  0  0  0  0
  -11.9580  -21.9851   31.9676 C   0  0  0  0  0  0  0  0  0  0  0  0
  -11.6935  -22.5311   30.6845 C   0  0  0  0  0  0  0  0  0  0  0  0
  -12.0202  -22.0894   29.4930 N   0  0  0  0  0  0  0  0  0  0  0  0
  -11.5688  -23.0385   28.6210 C   0  0  0  0  0  0  0  0  0  0  0  0
  -10.8951  -24.0512   29.2787 C   0  0  0  0  0  0  0  0  0  0  0  0
  -10.1367  -25.1288   28.6964 C   0  0  0  0  0  0  0  0  0  0  0  0
  -10.4449  -26.2447   28.8098 O   0  0  0  0  0  0  0  0  0  0  0  0
   -8.8938  -24.5005   28.0537 N   0  0  0  0  0  0  0  0  0  0  0  0
   -7.7948  -25.0741   27.5333 C   0  0  0  0  0  0  0  0  0  0  0  0
   -7.5568  -26.3258   27.2501 N   0  0  0  0  0  0  0  0  0  0  0  0
   -6.2206  -26.4510   26.9169 C   0  0  0  0  0  0  0  0  0  0  0  0
   -5.4742  -25.2961   27.0079 C   0  0  0  0  0  0  0  0  0  0  0  0
   -6.4962  -23.9832   27.3872 S   0  0  0  0  0  0  0  0  0  0  0  0
  -10.9546  -23.7184   30.6295 N   0  0  0  0  0  0  0  0  0  0  0  0
   -8.6339  -25.2521   31.0207 H   0  0  0  0  0  0  0  0  0  0  0  0
   -9.8981  -26.3682   31.5334 H   0  0  0  0  0  0  0  0  0  0  0  0
   -8.8796  -25.5551   32.7291 H   0  0  0  0  0  0  0  0  0  0  0  0
  -10.4380  -24.2908   33.9014 H   0  0  0  0  0  0  0  0  0  0  0  0
  -11.8453  -22.2541   34.0603 H   0  0  0  0  0  0  0  0  0  0  0  0
  -12.6157  -21.1452   32.0705 H   0  0  0  0  0  0  0  0  0  0  0  0
  -11.7217  -22.9281   27.5528 H   0  0  0  0  0  0  0  0  0  0  0  0
   -8.9058  -23.5030   28.2026 H   0  0  0  0  0  0  0  0  0  0  0  0
   -5.8258  -27.4221   26.6411 H   0  0  0  0  0  0  0  0  0  0  0  0
   -4.4130  -25.1974   26.8440 H   0  0  0  0  0  0  0  0  0  0  0  0
  1  2  1  0
  2  3  2  0
  3  4  1  0
  4  5  2  0
  5  6  1  0
  6  7  2  0
  7  8  1  0
  8  9  2  0
  9 10  1  0
 10 11  2  0
 10 12  1  0
 12 13  1  0
 13 14  2  0
 14 15  1  0
 15 16  2  0
 16 17  1  0
  9 18  1  0
 18  2  1  0
 18  6  1  0
 17 13  1  0
  1 19  1  0
  1 20  1  0
  1 21  1  0
  3 22  1  0
  4 23  1  0
  5 24  1  0
  8 25  1  0
 12 26  1  0
 15 27  1  0
 16 28  1  0
M  END
>  <Energy>  (615) 
-4.7410840956113613

>  <compound_id>  (615) 
5608

>  <target_id>  (615) 
1

>  <reference_id>  (615) 
45

>  <inspiration_ids>  (615) 
[45, 88]

>  <energy_score>  (615) 
-97.7186721578716

>  <distance_score>  (615) 
2.147518638151609

>  <path>  (615) 
/opt/xchem-fragalysis-2/maxwin/BulkDock/SCRATCH/511018/C5608-P45/C5608-P45.minimised.mol

>  <scratch_subdir>  (615) 
/opt/xchem-fragalysis-2/maxwin/BulkDock/SCRATCH/511018/C5608-P45

>  <fragmenstein_runtime>  (615) 
6.555691480636597

>  <fragmenstein_outcome>  (615) 
too moved

>  <fragmenstein_mode>  (615) 
expansion

>  <fragmenstein_error>  (615) 


$$$$
C5608-P88
     RDKit          3D

 28 30  0  0  0  0  0  0  0  0999 V2000
   -9.2867  -24.1660   32.8443 C   0  0  0  0  0  0  0  0  0  0  0  0
  -10.2183  -23.0004   32.9656 C   0  0  0  0  0  0  0  0  0  0  0  0
  -10.3326  -22.3493   34.1373 C   0  0  0  0  0  0  0  0  0  0  0  0
  -11.1650  -21.1721   34.2186 C   0  0  0  0  0  0  0  0  0  0  0  0
  -11.6421  -20.5718   33.1207 C   0  0  0  0  0  0  0  0  0  0  0  0
  -11.4246  -21.1633   31.8621 C   0  0  0  0  0  0  0  0  0  0  0  0
  -11.5964  -20.6891   30.6507 N   0  0  0  0  0  0  0  0  0  0  0  0
  -11.3974  -21.7594   29.8472 C   0  0  0  0  0  0  0  0  0  0  0  0
  -11.2512  -22.9131   30.6058 C   0  0  0  0  0  0  0  0  0  0  0  0
  -11.4087  -24.2871   30.2422 C   0  0  0  0  0  0  0  0  0  0  0  0
  -11.0392  -25.1512   30.9250 O   0  0  0  0  0  0  0  0  0  0  0  0
  -12.0136  -24.3220   28.8413 N   0  0  0  0  0  0  0  0  0  0  0  0
  -12.1954  -25.3450   27.9970 C   0  0  0  0  0  0  0  0  0  0  0  0
  -12.1229  -25.0688   26.7222 N   0  0  0  0  0  0  0  0  0  0  0  0
  -10.7989  -25.2712   26.4297 C   0  0  0  0  0  0  0  0  0  0  0  0
  -10.1243  -26.0773   27.3352 C   0  0  0  0  0  0  0  0  0  0  0  0
  -11.3282  -26.7583   28.3834 S   0  0  0  0  0  0  0  0  0  0  0  0
  -10.8986  -22.4512   31.8505 N   0  0  0  0  0  0  0  0  0  0  0  0
   -9.8082  -25.1115   33.0129 H   0  0  0  0  0  0  0  0  0  0  0  0
   -8.4793  -24.1071   33.5835 H   0  0  0  0  0  0  0  0  0  0  0  0
   -8.8061  -24.1841   31.8622 H   0  0  0  0  0  0  0  0  0  0  0  0
   -9.8284  -22.6782   35.0377 H   0  0  0  0  0  0  0  0  0  0  0  0
  -11.3666  -20.7559   35.1989 H   0  0  0  0  0  0  0  0  0  0  0  0
  -12.2372  -19.6691   33.1819 H   0  0  0  0  0  0  0  0  0  0  0  0
  -11.4799  -21.6321   28.7733 H   0  0  0  0  0  0  0  0  0  0  0  0
  -12.2974  -23.3968   28.5763 H   0  0  0  0  0  0  0  0  0  0  0  0
  -10.4237  -24.8337   25.5202 H   0  0  0  0  0  0  0  0  0  0  0  0
   -9.1242  -26.4749   27.2952 H   0  0  0  0  0  0  0  0  0  0  0  0
  1  2  1  0
  2  3  2  0
  3  4  1  0
  4  5  2  0
  5  6  1  0
  6  7  2  0
  7  8  1  0
  8  9  2  0
  9 10  1  0
 10 11  2  0
 10 12  1  0
 12 13  1  0
 13 14  2  0
 14 15  1  0
 15 16  2  0
 16 17  1  0
  9 18  1  0
 18  2  1  0
 18  6  1  0
 17 13  1  0
  1 19  1  0
  1 20  1  0
  1 21  1  0
  3 22  1  0
  4 23  1  0
  5 24  1  0
  8 25  1  0
 12 26  1  0
 15 27  1  0
 16 28  1  0
M  END
>  <Energy>  (616) 
39.656731727801642

>  <compound_id>  (616) 
5608

>  <target_id>  (616) 
1

>  <reference_id>  (616) 
88

>  <inspiration_ids>  (616) 
[45, 88]

>  <energy_score>  (616) 
-53.32085633446121

>  <distance_score>  (616) 
3.7741899733479465

>  <path>  (616) 
/opt/xchem-fragalysis-2/maxwin/BulkDock/SCRATCH/511018/C5608-P88/C5608-P88.minimised.mol

>  <scratch_subdir>  (616) 
/opt/xchem-fragalysis-2/maxwin/BulkDock/SCRATCH/511018/C5608-P88

>  <fragmenstein_runtime>  (616) 
8.97030520439148

>  <fragmenstein_outcome>  (616) 
too moved

>  <fragmenstein_mode>  (616) 
expansion

>  <fragmenstein_error>  (616) 


$$$$
C5609-P45
     RDKit          3D

 39 42  0  0  0  0  0  0  0  0999 V2000
   -8.9279  -26.4628   29.2061 O   0  0  0  0  0  0  0  0  0  0  0  0
   -9.0773  -25.4919   28.5504 C   0  0  0  0  0  0  0  0  0  0  0  0
   -9.9270  -24.4119   28.7135 N   0  0  0  0  0  0  0  0  0  0  0  0
  -10.9590  -24.1729   29.6638 C   0  0  0  0  0  0  0  0  0  0  0  0
  -11.9496  -25.1748   28.8950 C   0  0  0  0  0  0  0  0  0  0  0  0
  -12.3160  -24.8946   27.6422 N   0  0  0  0  0  0  0  0  0  0  0  0
  -12.4621  -26.0519   26.8944 C   0  0  0  0  0  0  0  0  0  0  0  0
  -12.4527  -27.2195   27.6084 C   0  0  0  0  0  0  0  0  0  0  0  0
  -12.0695  -26.8823   29.2260 S   0  0  0  0  0  0  0  0  0  0  0  0
  -11.4447  -22.7409   29.5315 C   0  0  0  0  0  0  0  0  0  0  0  0
  -11.9859  -22.1940   30.8160 C   0  0  0  0  0  0  0  0  0  0  0  0
  -11.1961  -22.4189   31.9584 O   0  0  0  0  0  0  0  0  0  0  0  0
  -10.7611  -23.7366   32.2527 C   0  0  0  0  0  0  0  0  0  0  0  0
  -10.3251  -24.5683   31.0446 C   0  0  0  0  0  0  0  0  0  0  0  0
   -8.3608  -25.3949   27.3098 C   0  0  0  0  0  0  0  0  0  0  0  0
   -9.2728  -25.4957   26.2659 C   0  0  0  0  0  0  0  0  0  0  0  0
   -9.6095  -26.8439   26.2514 N   0  0  0  0  0  0  0  0  0  0  0  0
   -8.4598  -27.4296   26.5441 C   0  0  0  0  0  0  0  0  0  0  0  0
   -7.9666  -28.7172   26.2703 C   0  0  0  0  0  0  0  0  0  0  0  0
   -6.6350  -28.8674   26.2089 C   0  0  0  0  0  0  0  0  0  0  0  0
   -5.6900  -27.8193   26.5762 C   0  0  0  0  0  0  0  0  0  0  0  0
   -6.1698  -26.6207   26.9406 C   0  0  0  0  0  0  0  0  0  0  0  0
   -7.5432  -26.4485   26.9350 N   0  0  0  0  0  0  0  0  0  0  0  0
   -9.8414  -23.8036   27.9104 H   0  0  0  0  0  0  0  0  0  0  0  0
  -12.6137  -25.9797   25.8234 H   0  0  0  0  0  0  0  0  0  0  0  0
  -12.5769  -28.2291   27.2468 H   0  0  0  0  0  0  0  0  0  0  0  0
  -10.6280  -22.0871   29.2057 H   0  0  0  0  0  0  0  0  0  0  0  0
  -12.1988  -22.6188   28.7453 H   0  0  0  0  0  0  0  0  0  0  0  0
  -13.0340  -22.4450   30.9539 H   0  0  0  0  0  0  0  0  0  0  0  0
  -11.9870  -21.1219   30.6962 H   0  0  0  0  0  0  0  0  0  0  0  0
  -11.4925  -24.2136   32.8934 H   0  0  0  0  0  0  0  0  0  0  0  0
   -9.9002  -23.6468   32.9260 H   0  0  0  0  0  0  0  0  0  0  0  0
  -10.3206  -25.6450   31.2583 H   0  0  0  0  0  0  0  0  0  0  0  0
   -9.2352  -24.5003   31.0179 H   0  0  0  0  0  0  0  0  0  0  0  0
  -10.0077  -24.7737   25.9301 H   0  0  0  0  0  0  0  0  0  0  0  0
   -8.6466  -29.5017   25.9613 H   0  0  0  0  0  0  0  0  0  0  0  0
   -6.2560  -29.7943   25.8118 H   0  0  0  0  0  0  0  0  0  0  0  0
   -4.6240  -28.0075   26.5212 H   0  0  0  0  0  0  0  0  0  0  0  0
   -5.5446  -25.7818   27.2153 H   0  0  0  0  0  0  0  0  0  0  0  0
  1  2  2  0
  2  3  1  0
  3  4  1  0
  4  5  1  0
  5  6  2  0
  6  7  1  0
  7  8  2  0
  8  9  1  0
  4 10  1  0
 10 11  1  0
 11 12  1  0
 12 13  1  0
 13 14  1  0
  2 15  1  0
 15 16  2  0
 16 17  1  0
 17 18  2  0
 18 19  1  0
 19 20  2  0
 20 21  1  0
 21 22  2  0
 22 23  1  0
 14  4  1  0
 23 15  1  0
  9  5  1  0
 23 18  1  0
  3 24  1  0
  7 25  1  0
  8 26  1  0
 10 27  1  0
 10 28  1  0
 11 29  1  0
 11 30  1  0
 13 31  1  0
 13 32  1  0
 14 33  1  0
 14 34  1  0
 16 35  1  0
 19 36  1  0
 20 37  1  0
 21 38  1  0
 22 39  1  0
M  END
>  <Energy>  (617) 
110.36289809520214

>  <compound_id>  (617) 
5609

>  <target_id>  (617) 
1

>  <reference_id>  (617) 
45

>  <inspiration_ids>  (617) 
[45, 88]

>  <energy_score>  (617) 
14.938526028940828

>  <distance_score>  (617) 
2.5982551389617012

>  <path>  (617) 
/opt/xchem-fragalysis-2/maxwin/BulkDock/SCRATCH/511018/C5609-P45/C5609-P45.minimised.mol

>  <scratch_subdir>  (617) 
/opt/xchem-fragalysis-2/maxwin/BulkDock/SCRATCH/511018/C5609-P45

>  <fragmenstein_runtime>  (617) 
9.34996771812439

>  <fragmenstein_outcome>  (617) 
too moved

>  <fragmenstein_mode>  (617) 
expansion

>  <fragmenstein_error>  (617) 


$$$$
C5609-P88
     RDKit          3D

 39 42  0  0  0  0  0  0  0  0999 V2000
  -11.4598  -25.8455   31.2564 O   0  0  0  0  0  0  0  0  0  0  0  0
  -10.9385  -25.0767   30.5057 C   0  0  0  0  0  0  0  0  0  0  0  0
  -10.1831  -23.9060   30.7578 N   0  0  0  0  0  0  0  0  0  0  0  0
   -9.8814  -23.2080   32.0024 C   0  0  0  0  0  0  0  0  0  0  0  0
  -10.6743  -21.9192   31.8054 C   0  0  0  0  0  0  0  0  0  0  0  0
  -10.9700  -21.4411   30.6051 N   0  0  0  0  0  0  0  0  0  0  0  0
  -11.2874  -20.1145   30.7310 C   0  0  0  0  0  0  0  0  0  0  0  0
  -11.3223  -19.6485   32.0231 C   0  0  0  0  0  0  0  0  0  0  0  0
  -11.1043  -20.9113   33.1219 S   0  0  0  0  0  0  0  0  0  0  0  0
  -10.2753  -23.9181   33.2609 C   0  0  0  0  0  0  0  0  0  0  0  0
   -9.5874  -23.4914   34.5512 C   0  0  0  0  0  0  0  0  0  0  0  0
   -8.3266  -22.9155   34.3917 O   0  0  0  0  0  0  0  0  0  0  0  0
   -7.6891  -23.4542   33.2536 C   0  0  0  0  0  0  0  0  0  0  0  0
   -8.4080  -22.8860   32.0634 C   0  0  0  0  0  0  0  0  0  0  0  0
  -11.1540  -25.2599   29.0735 C   0  0  0  0  0  0  0  0  0  0  0  0
  -11.0410  -24.3792   28.0035 C   0  0  0  0  0  0  0  0  0  0  0  0
  -11.6382  -24.8684   26.8726 N   0  0  0  0  0  0  0  0  0  0  0  0
  -12.1422  -26.0239   27.2358 C   0  0  0  0  0  0  0  0  0  0  0  0
  -13.0134  -26.9224   26.5591 C   0  0  0  0  0  0  0  0  0  0  0  0
  -13.2646  -28.1361   27.0868 C   0  0  0  0  0  0  0  0  0  0  0  0
  -12.6578  -28.5576   28.3371 C   0  0  0  0  0  0  0  0  0  0  0  0
  -11.9302  -27.6688   29.0314 C   0  0  0  0  0  0  0  0  0  0  0  0
  -11.7165  -26.3902   28.5075 N   0  0  0  0  0  0  0  0  0  0  0  0
   -9.9687  -23.4583   29.8799 H   0  0  0  0  0  0  0  0  0  0  0  0
  -11.4262  -19.5166   29.8396 H   0  0  0  0  0  0  0  0  0  0  0  0
  -11.4581  -18.6527   32.3994 H   0  0  0  0  0  0  0  0  0  0  0  0
  -11.3224  -23.7112   33.3940 H   0  0  0  0  0  0  0  0  0  0  0  0
  -10.1052  -24.9956   33.1531 H   0  0  0  0  0  0  0  0  0  0  0  0
   -9.4374  -24.3867   35.1526 H   0  0  0  0  0  0  0  0  0  0  0  0
  -10.1927  -22.7954   35.1381 H   0  0  0  0  0  0  0  0  0  0  0  0
   -7.6593  -24.5491   33.2792 H   0  0  0  0  0  0  0  0  0  0  0  0
   -6.6843  -23.0607   33.2741 H   0  0  0  0  0  0  0  0  0  0  0  0
   -7.9207  -23.1258   31.1232 H   0  0  0  0  0  0  0  0  0  0  0  0
   -8.3261  -21.8214   32.2489 H   0  0  0  0  0  0  0  0  0  0  0  0
  -10.6526  -23.3669   27.9938 H   0  0  0  0  0  0  0  0  0  0  0  0
  -13.4601  -26.6019   25.6266 H   0  0  0  0  0  0  0  0  0  0  0  0
  -13.9344  -28.8299   26.5887 H   0  0  0  0  0  0  0  0  0  0  0  0
  -12.8536  -29.5565   28.7126 H   0  0  0  0  0  0  0  0  0  0  0  0
  -11.5106  -27.9020   30.0006 H   0  0  0  0  0  0  0  0  0  0  0  0
  1  2  2  0
  2  3  1  0
  3  4  1  0
  4  5  1  0
  5  6  2  0
  6  7  1  0
  7  8  2  0
  8  9  1  0
  4 10  1  0
 10 11  1  0
 11 12  1  0
 12 13  1  0
 13 14  1  0
  2 15  1  0
 15 16  2  0
 16 17  1  0
 17 18  2  0
 18 19  1  0
 19 20  2  0
 20 21  1  0
 21 22  2  0
 22 23  1  0
 14  4  1  0
 23 15  1  0
  9  5  1  0
 23 18  1  0
  3 24  1  0
  7 25  1  0
  8 26  1  0
 10 27  1  0
 10 28  1  0
 11 29  1  0
 11 30  1  0
 13 31  1  0
 13 32  1  0
 14 33  1  0
 14 34  1  0
 16 35  1  0
 19 36  1  0
 20 37  1  0
 21 38  1  0
 22 39  1  0
M  END
>  <Energy>  (618) 
20.492760133270533

>  <compound_id>  (618) 
5609

>  <target_id>  (618) 
1

>  <reference_id>  (618) 
88

>  <inspiration_ids>  (618) 
[45, 88]

>  <energy_score>  (618) 
-74.93161193298776

>  <distance_score>  (618) 
4.695311521246148

>  <path>  (618) 
/opt/xchem-fragalysis-2/maxwin/BulkDock/SCRATCH/511018/C5609-P88/C5609-P88.minimised.mol

>  <scratch_subdir>  (618) 
/opt/xchem-fragalysis-2/maxwin/BulkDock/SCRATCH/511018/C5609-P88

>  <fragmenstein_runtime>  (618) 
10.10444688796997

>  <fragmenstein_outcome>  (618) 
too moved

>  <fragmenstein_mode>  (618) 
expansion

>  <fragmenstein_error>  (618) 


$$$$
C5610-P45
     RDKit          3D

 37 39  0  0  0  0  0  0  0  0999 V2000
  -10.4919  -25.6124   25.9511 C   0  0  0  0  0  0  0  0  0  0  0  0
  -11.6357  -25.1156   26.8237 C   0  0  0  0  0  0  0  0  0  0  0  0
  -12.4940  -26.3754   27.1128 C   0  0  0  0  0  0  0  0  0  0  0  0
  -12.3432  -24.0864   25.9427 C   0  0  0  0  0  0  0  0  0  0  0  0
  -11.2143  -24.5317   28.1588 C   0  0  0  0  0  0  0  0  0  0  0  0
  -11.7893  -23.4245   28.7359 N   0  0  0  0  0  0  0  0  0  0  0  0
  -11.3782  -23.4182   29.9860 C   0  0  0  0  0  0  0  0  0  0  0  0
  -11.6900  -22.5601   31.0772 C   0  0  0  0  0  0  0  0  0  0  0  0
  -11.2467  -22.8506   32.3178 C   0  0  0  0  0  0  0  0  0  0  0  0
  -10.3777  -23.9942   32.5632 C   0  0  0  0  0  0  0  0  0  0  0  0
   -9.9767  -24.7508   31.5246 C   0  0  0  0  0  0  0  0  0  0  0  0
  -10.4990  -24.4745   30.2424 N   0  0  0  0  0  0  0  0  0  0  0  0
  -10.3100  -25.0872   29.0376 C   0  0  0  0  0  0  0  0  0  0  0  0
   -9.3238  -26.0445   28.7007 C   0  0  0  0  0  0  0  0  0  0  0  0
   -9.4215  -27.1820   28.9127 O   0  0  0  0  0  0  0  0  0  0  0  0
   -8.2165  -25.2578   27.9983 N   0  0  0  0  0  0  0  0  0  0  0  0
   -7.1164  -25.6807   27.3684 C   0  0  0  0  0  0  0  0  0  0  0  0
   -6.7670  -26.9078   27.1014 N   0  0  0  0  0  0  0  0  0  0  0  0
   -5.4152  -26.9100   26.8494 C   0  0  0  0  0  0  0  0  0  0  0  0
   -4.7941  -25.6839   26.9454 C   0  0  0  0  0  0  0  0  0  0  0  0
   -5.9610  -24.4565   27.1869 S   0  0  0  0  0  0  0  0  0  0  0  0
   -9.7366  -24.8428   25.7766 H   0  0  0  0  0  0  0  0  0  0  0  0
  -10.0002  -26.5017   26.3524 H   0  0  0  0  0  0  0  0  0  0  0  0
  -10.9019  -25.9151   24.9861 H   0  0  0  0  0  0  0  0  0  0  0  0
  -13.1676  -26.2325   27.9642 H   0  0  0  0  0  0  0  0  0  0  0  0
  -13.0713  -26.6846   26.2346 H   0  0  0  0  0  0  0  0  0  0  0  0
  -11.8671  -27.2311   27.3952 H   0  0  0  0  0  0  0  0  0  0  0  0
  -12.9970  -24.5582   25.2023 H   0  0  0  0  0  0  0  0  0  0  0  0
  -11.6349  -23.4745   25.3817 H   0  0  0  0  0  0  0  0  0  0  0  0
  -12.9133  -23.3881   26.5387 H   0  0  0  0  0  0  0  0  0  0  0  0
  -12.3545  -21.7289   30.8944 H   0  0  0  0  0  0  0  0  0  0  0  0
  -11.5467  -22.2512   33.1734 H   0  0  0  0  0  0  0  0  0  0  0  0
  -10.0802  -24.2417   33.5699 H   0  0  0  0  0  0  0  0  0  0  0  0
   -9.3340  -25.6184   31.6395 H   0  0  0  0  0  0  0  0  0  0  0  0
   -8.4143  -24.2687   28.0605 H   0  0  0  0  0  0  0  0  0  0  0  0
   -4.9060  -27.8399   26.6268 H   0  0  0  0  0  0  0  0  0  0  0  0
   -3.7358  -25.5097   26.8410 H   0  0  0  0  0  0  0  0  0  0  0  0
  1  2  1  0
  2  3  1  0
  2  4  1  0
  2  5  1  0
  5  6  1  0
  6  7  2  0
  7  8  1  0
  8  9  2  0
  9 10  1  0
 10 11  2  0
 11 12  1  0
 12 13  1  0
 13 14  1  0
 14 15  2  0
 14 16  1  0
 16 17  1  0
 17 18  2  0
 18 19  1  0
 19 20  2  0
 20 21  1  0
 13  5  2  0
 21 17  1  0
 12  7  1  0
  1 22  1  0
  1 23  1  0
  1 24  1  0
  3 25  1  0
  3 26  1  0
  3 27  1  0
  4 28  1  0
  4 29  1  0
  4 30  1  0
  8 31  1  0
  9 32  1  0
 10 33  1  0
 11 34  1  0
 16 35  1  0
 19 36  1  0
 20 37  1  0
M  END
>  <Energy>  (619) 
17.246259043605892

>  <compound_id>  (619) 
5610

>  <target_id>  (619) 
1

>  <reference_id>  (619) 
45

>  <inspiration_ids>  (619) 
[45, 88]

>  <energy_score>  (619) 
-47.31733395795888

>  <distance_score>  (619) 
2.3690188158982486

>  <path>  (619) 
/opt/xchem-fragalysis-2/maxwin/BulkDock/SCRATCH/511018/C5610-P45/C5610-P45.minimised.mol

>  <scratch_subdir>  (619) 
/opt/xchem-fragalysis-2/maxwin/BulkDock/SCRATCH/511018/C5610-P45

>  <fragmenstein_runtime>  (619) 
8.565736532211304

>  <fragmenstein_outcome>  (619) 
too moved

>  <fragmenstein_mode>  (619) 
expansion

>  <fragmenstein_error>  (619) 


$$$$
C5610-P88
     RDKit          3D

 37 39  0  0  0  0  0  0  0  0999 V2000
  -10.5435  -23.6082   26.1917 C   0  0  0  0  0  0  0  0  0  0  0  0
  -11.2943  -23.3490   27.4704 C   0  0  0  0  0  0  0  0  0  0  0  0
  -12.7355  -23.7624   27.1093 C   0  0  0  0  0  0  0  0  0  0  0  0
  -11.2122  -21.8589   27.8332 C   0  0  0  0  0  0  0  0  0  0  0  0
  -10.7285  -24.0405   28.6948 C   0  0  0  0  0  0  0  0  0  0  0  0
   -9.4778  -23.7594   29.2320 N   0  0  0  0  0  0  0  0  0  0  0  0
   -9.6884  -23.6533   30.5354 C   0  0  0  0  0  0  0  0  0  0  0  0
   -8.9078  -23.2152   31.6443 C   0  0  0  0  0  0  0  0  0  0  0  0
   -9.4989  -22.6223   32.6990 C   0  0  0  0  0  0  0  0  0  0  0  0
  -10.9198  -22.3643   32.6856 C   0  0  0  0  0  0  0  0  0  0  0  0
  -11.6478  -22.9259   31.7084 C   0  0  0  0  0  0  0  0  0  0  0  0
  -11.0544  -23.7322   30.7543 N   0  0  0  0  0  0  0  0  0  0  0  0
  -11.5167  -24.5155   29.7209 C   0  0  0  0  0  0  0  0  0  0  0  0
  -12.5259  -25.5288   29.5883 C   0  0  0  0  0  0  0  0  0  0  0  0
  -13.6889  -25.2898   29.6825 O   0  0  0  0  0  0  0  0  0  0  0  0
  -11.8497  -26.7295   29.2522 N   0  0  0  0  0  0  0  0  0  0  0  0
  -12.3181  -27.9220   28.8564 C   0  0  0  0  0  0  0  0  0  0  0  0
  -13.5494  -28.2786   28.6318 N   0  0  0  0  0  0  0  0  0  0  0  0
  -13.5483  -29.5815   28.1779 C   0  0  0  0  0  0  0  0  0  0  0  0
  -12.3123  -30.1861   28.0880 C   0  0  0  0  0  0  0  0  0  0  0  0
  -11.1104  -29.0745   28.5636 S   0  0  0  0  0  0  0  0  0  0  0  0
  -10.5589  -24.6733   25.9408 H   0  0  0  0  0  0  0  0  0  0  0  0
  -10.9734  -23.0681   25.3402 H   0  0  0  0  0  0  0  0  0  0  0  0
   -9.5316  -23.2546   26.3084 H   0  0  0  0  0  0  0  0  0  0  0  0
  -12.7786  -24.8082   26.7789 H   0  0  0  0  0  0  0  0  0  0  0  0
  -13.4221  -23.6760   27.9457 H   0  0  0  0  0  0  0  0  0  0  0  0
  -13.1366  -23.1472   26.2949 H   0  0  0  0  0  0  0  0  0  0  0  0
  -11.3463  -21.2502   26.9527 H   0  0  0  0  0  0  0  0  0  0  0  0
  -10.2328  -21.5785   28.2359 H   0  0  0  0  0  0  0  0  0  0  0  0
  -11.9450  -21.5833   28.5971 H   0  0  0  0  0  0  0  0  0  0  0  0
   -7.8371  -23.2724   31.6195 H   0  0  0  0  0  0  0  0  0  0  0  0
   -8.9093  -22.2413   33.5273 H   0  0  0  0  0  0  0  0  0  0  0  0
  -11.3602  -21.6931   33.4167 H   0  0  0  0  0  0  0  0  0  0  0  0
  -12.6788  -22.6748   31.5518 H   0  0  0  0  0  0  0  0  0  0  0  0
  -10.8561  -26.5856   29.3505 H   0  0  0  0  0  0  0  0  0  0  0  0
  -14.4914  -30.0542   27.9305 H   0  0  0  0  0  0  0  0  0  0  0  0
  -12.0752  -31.1912   27.7698 H   0  0  0  0  0  0  0  0  0  0  0  0
  1  2  1  0
  2  3  1  0
  2  4  1  0
  2  5  1  0
  5  6  1  0
  6  7  2  0
  7  8  1  0
  8  9  2  0
  9 10  1  0
 10 11  2  0
 11 12  1  0
 12 13  1  0
 13 14  1  0
 14 15  2  0
 14 16  1  0
 16 17  1  0
 17 18  2  0
 18 19  1  0
 19 20  2  0
 20 21  1  0
 13  5  2  0
 21 17  1  0
 12  7  1  0
  1 22  1  0
  1 23  1  0
  1 24  1  0
  3 25  1  0
  3 26  1  0
  3 27  1  0
  4 28  1  0
  4 29  1  0
  4 30  1  0
  8 31  1  0
  9 32  1  0
 10 33  1  0
 11 34  1  0
 16 35  1  0
 19 36  1  0
 20 37  1  0
M  END
>  <Energy>  (620) 
39.769660842991705

>  <compound_id>  (620) 
5610

>  <target_id>  (620) 
1

>  <reference_id>  (620) 
88

>  <inspiration_ids>  (620) 
[45, 88]

>  <energy_score>  (620) 
-54.50127096813219

>  <distance_score>  (620) 
4.510091969832122

>  <path>  (620) 
/opt/xchem-fragalysis-2/maxwin/BulkDock/SCRATCH/511018/C5610-P88/C5610-P88.minimised.mol

>  <scratch_subdir>  (620) 
/opt/xchem-fragalysis-2/maxwin/BulkDock/SCRATCH/511018/C5610-P88

>  <fragmenstein_runtime>  (620) 
13.13655972480774

>  <fragmenstein_outcome>  (620) 
too moved

>  <fragmenstein_mode>  (620) 
expansion

>  <fragmenstein_error>  (620) 


$$$$
C5613-P48
     RDKit          3D

 32 35  0  0  0  0  0  0  0  0999 V2000
  -13.6067  -27.0809   16.5019 C   0  0  0  0  0  0  0  0  0  0  0  0
  -14.6577  -26.8243   17.3594 C   0  0  0  0  0  0  0  0  0  0  0  0
  -14.4327  -26.1826   18.6005 C   0  0  0  0  0  0  0  0  0  0  0  0
  -13.1964  -25.6478   18.9410 C   0  0  0  0  0  0  0  0  0  0  0  0
  -12.8198  -24.8395   20.4189 C   0  0  0  0  0  0  0  0  0  0  0  0
  -13.2805  -25.6238   21.6083 N   0  0  0  0  0  0  0  0  0  0  0  0
  -13.6971  -24.7716   23.2128 N   0  0  0  0  0  0  0  0  0  0  0  0
  -13.4091  -23.3442   23.2184 C   0  0  0  0  0  0  0  0  0  0  0  0
  -13.2151  -22.7500   24.4556 N   0  0  0  0  0  0  0  0  0  0  0  0
  -13.0348  -23.5605   25.6639 C   0  0  0  0  0  0  0  0  0  0  0  0
  -13.4308  -24.9271   25.7568 C   0  0  0  0  0  0  0  0  0  0  0  0
  -12.9112  -25.8683   26.6613 C   0  0  0  0  0  0  0  0  0  0  0  0
  -12.1604  -25.3372   27.6875 C   0  0  0  0  0  0  0  0  0  0  0  0
  -11.6632  -25.9360   28.8193 N   0  0  0  0  0  0  0  0  0  0  0  0
  -11.2569  -24.9747   29.6973 C   0  0  0  0  0  0  0  0  0  0  0  0
  -11.3960  -23.7599   29.0672 C   0  0  0  0  0  0  0  0  0  0  0  0
  -11.8831  -23.9770   27.7647 C   0  0  0  0  0  0  0  0  0  0  0  0
  -12.2496  -23.0995   26.7170 C   0  0  0  0  0  0  0  0  0  0  0  0
  -12.3794  -22.8631   21.2961 S   0  0  0  0  0  0  0  0  0  0  0  0
  -12.1633  -26.1863   18.1961 N   0  0  0  0  0  0  0  0  0  0  0  0
  -12.3638  -26.7908   16.9922 C   0  0  0  0  0  0  0  0  0  0  0  0
  -13.7448  -27.5747   15.5488 H   0  0  0  0  0  0  0  0  0  0  0  0
  -15.6585  -27.1707   17.1098 H   0  0  0  0  0  0  0  0  0  0  0  0
  -15.2443  -26.2541   19.3065 H   0  0  0  0  0  0  0  0  0  0  0  0
  -13.0581  -21.7566   24.5926 H   0  0  0  0  0  0  0  0  0  0  0  0
  -14.2063  -25.3217   25.1050 H   0  0  0  0  0  0  0  0  0  0  0  0
  -13.2165  -26.9080   26.6364 H   0  0  0  0  0  0  0  0  0  0  0  0
  -11.7241  -26.9222   29.0310 H   0  0  0  0  0  0  0  0  0  0  0  0
  -10.9340  -25.2267   30.6986 H   0  0  0  0  0  0  0  0  0  0  0  0
  -11.2484  -22.7836   29.5023 H   0  0  0  0  0  0  0  0  0  0  0  0
  -11.9919  -22.0509   26.8011 H   0  0  0  0  0  0  0  0  0  0  0  0
  -11.4577  -27.0424   16.4477 H   0  0  0  0  0  0  0  0  0  0  0  0
  1  2  2  0
  2  3  1  0
  3  4  2  0
  4  5  1  0
  5  6  2  0
  6  7  1  0
  7  8  2  0
  8  9  1  0
  9 10  1  0
 10 11  2  0
 11 12  1  0
 12 13  2  0
 13 14  1  0
 14 15  1  0
 15 16  2  0
 16 17  1  0
 17 18  2  0
  8 19  1  0
  4 20  1  0
 20 21  2  0
 21  1  1  0
 19  5  1  0
 18 10  1  0
 17 13  1  0
  1 22  1  0
  2 23  1  0
  3 24  1  0
  9 25  1  0
 11 26  1  0
 12 27  1  0
 14 28  1  0
 15 29  1  0
 16 30  1  0
 18 31  1  0
 21 32  1  0
M  END
>  <Energy>  (621) 
285.56733361653863

>  <compound_id>  (621) 
5613

>  <target_id>  (621) 
1

>  <reference_id>  (621) 
48

>  <inspiration_ids>  (621) 
[48, 39]

>  <energy_score>  (621) 
149.58528387750601

>  <distance_score>  (621) 
7.349023134177704

>  <path>  (621) 
/opt/xchem-fragalysis-2/maxwin/BulkDock/SCRATCH/511018/C5613-P48/C5613-P48.minimised.mol

>  <scratch_subdir>  (621) 
/opt/xchem-fragalysis-2/maxwin/BulkDock/SCRATCH/511018/C5613-P48

>  <fragmenstein_runtime>  (621) 
4.785116195678711

>  <fragmenstein_outcome>  (621) 
too moved

>  <fragmenstein_mode>  (621) 
expansion

>  <fragmenstein_error>  (621) 


$$$$
C5613-P39
     RDKit          3D

 32 35  0  0  0  0  0  0  0  0999 V2000
  -12.9394  -26.0059   13.8234 C   0  0  0  0  0  0  0  0  0  0  0  0
  -12.0645  -26.5701   14.7440 C   0  0  0  0  0  0  0  0  0  0  0  0
  -12.3155  -26.4278   16.1140 C   0  0  0  0  0  0  0  0  0  0  0  0
  -13.4146  -25.6799   16.5395 C   0  0  0  0  0  0  0  0  0  0  0  0
  -13.8625  -25.6753   17.9558 C   0  0  0  0  0  0  0  0  0  0  0  0
  -14.9120  -26.3632   18.2549 N   0  0  0  0  0  0  0  0  0  0  0  0
  -15.0104  -26.4526   19.6565 N   0  0  0  0  0  0  0  0  0  0  0  0
  -14.4880  -25.7434   20.6453 C   0  0  0  0  0  0  0  0  0  0  0  0
  -14.9223  -26.1228   22.2450 N   0  0  0  0  0  0  0  0  0  0  0  0
  -14.6813  -25.6648   23.7108 C   0  0  0  0  0  0  0  0  0  0  0  0
  -15.2427  -24.5509   24.2622 C   0  0  0  0  0  0  0  0  0  0  0  0
  -14.4006  -23.6751   24.9137 C   0  0  0  0  0  0  0  0  0  0  0  0
  -13.2989  -24.1869   25.6037 C   0  0  0  0  0  0  0  0  0  0  0  0
  -12.3431  -23.6014   26.3958 N   0  0  0  0  0  0  0  0  0  0  0  0
  -11.5487  -24.5618   26.9626 C   0  0  0  0  0  0  0  0  0  0  0  0
  -11.9347  -25.7782   26.4445 C   0  0  0  0  0  0  0  0  0  0  0  0
  -13.0246  -25.5367   25.5672 C   0  0  0  0  0  0  0  0  0  0  0  0
  -13.7235  -26.2607   24.5740 C   0  0  0  0  0  0  0  0  0  0  0  0
  -13.3616  -24.7447   19.4592 S   0  0  0  0  0  0  0  0  0  0  0  0
  -14.2876  -25.1379   15.6400 N   0  0  0  0  0  0  0  0  0  0  0  0
  -14.0322  -25.3133   14.3156 C   0  0  0  0  0  0  0  0  0  0  0  0
  -12.7755  -26.1067   12.7567 H   0  0  0  0  0  0  0  0  0  0  0  0
  -11.1974  -27.1316   14.4049 H   0  0  0  0  0  0  0  0  0  0  0  0
  -11.6675  -26.9096   16.8378 H   0  0  0  0  0  0  0  0  0  0  0  0
  -15.9153  -25.8736   22.1547 H   0  0  0  0  0  0  0  0  0  0  0  0
  -16.2682  -24.2470   24.1101 H   0  0  0  0  0  0  0  0  0  0  0  0
  -14.6973  -22.6396   24.9393 H   0  0  0  0  0  0  0  0  0  0  0  0
  -12.2749  -22.6002   26.5343 H   0  0  0  0  0  0  0  0  0  0  0  0
  -10.7545  -24.2945   27.6469 H   0  0  0  0  0  0  0  0  0  0  0  0
  -11.4482  -26.7251   26.6347 H   0  0  0  0  0  0  0  0  0  0  0  0
  -13.2696  -27.1947   24.3537 H   0  0  0  0  0  0  0  0  0  0  0  0
  -14.7554  -24.8575   13.6451 H   0  0  0  0  0  0  0  0  0  0  0  0
  1  2  2  0
  2  3  1  0
  3  4  2  0
  4  5  1  0
  5  6  2  0
  6  7  1  0
  7  8  2  0
  8  9  1  0
  9 10  1  0
 10 11  2  0
 11 12  1  0
 12 13  2  0
 13 14  1  0
 14 15  1  0
 15 16  2  0
 16 17  1  0
 17 18  2  0
  8 19  1  0
  4 20  1  0
 20 21  2  0
 21  1  1  0
 19  5  1  0
 18 10  1  0
 17 13  1  0
  1 22  1  0
  2 23  1  0
  3 24  1  0
  9 25  1  0
 11 26  1  0
 12 27  1  0
 14 28  1  0
 15 29  1  0
 16 30  1  0
 18 31  1  0
 21 32  1  0
M  END
>  <Energy>  (622) 
215.73274241245568

>  <compound_id>  (622) 
5613

>  <target_id>  (622) 
1

>  <reference_id>  (622) 
39

>  <inspiration_ids>  (622) 
[48, 39]

>  <energy_score>  (622) 
79.75069267342832

>  <distance_score>  (622) 
7.234823127162464

>  <path>  (622) 
/opt/xchem-fragalysis-2/maxwin/BulkDock/SCRATCH/511018/C5613-P39/C5613-P39.minimised.mol

>  <scratch_subdir>  (622) 
/opt/xchem-fragalysis-2/maxwin/BulkDock/SCRATCH/511018/C5613-P39

>  <fragmenstein_runtime>  (622) 
6.9552085399627686

>  <fragmenstein_outcome>  (622) 
too moved

>  <fragmenstein_mode>  (622) 
expansion

>  <fragmenstein_error>  (622) 


$$$$
C5617-P48
     RDKit          3D

 39 42  0  0  0  0  0  0  0  0999 V2000
  -13.2134  -25.3433   20.2796 O   0  0  0  0  0  0  0  0  0  0  0  0
  -13.1498  -24.3944   19.5832 C   0  0  0  0  0  0  0  0  0  0  0  0
  -12.5930  -22.6563   20.0726 N   0  0  0  0  0  0  0  0  0  0  0  0
  -11.8498  -21.9460   21.7823 S   0  0  0  0  0  0  0  0  0  0  0  0
  -12.7053  -20.7841   21.9761 O   0  0  0  0  0  0  0  0  0  0  0  0
  -11.7420  -22.6653   23.0117 O   0  0  0  0  0  0  0  0  0  0  0  0
  -10.3007  -21.0445   21.4743 C   0  0  0  0  0  0  0  0  0  0  0  0
   -9.0518  -21.4397   21.9582 C   0  0  0  0  0  0  0  0  0  0  0  0
   -7.9048  -20.6386   21.8959 C   0  0  0  0  0  0  0  0  0  0  0  0
   -8.1314  -19.2992   21.6490 C   0  0  0  0  0  0  0  0  0  0  0  0
   -7.2853  -18.2283   21.7777 N   0  0  0  0  0  0  0  0  0  0  0  0
   -7.9653  -17.0700   21.5261 C   0  0  0  0  0  0  0  0  0  0  0  0
   -9.2512  -17.4036   21.1717 C   0  0  0  0  0  0  0  0  0  0  0  0
   -9.3706  -18.8111   21.2602 C   0  0  0  0  0  0  0  0  0  0  0  0
  -10.4372  -19.7066   21.0797 C   0  0  0  0  0  0  0  0  0  0  0  0
  -13.8174  -24.7929   17.9465 C   0  0  0  0  0  0  0  0  0  0  0  0
  -15.1311  -24.6283   17.4704 C   0  0  0  0  0  0  0  0  0  0  0  0
  -15.5656  -24.8720   16.1451 C   0  0  0  0  0  0  0  0  0  0  0  0
  -14.6903  -25.4232   15.2687 C   0  0  0  0  0  0  0  0  0  0  0  0
  -13.5283  -25.8762   15.7172 N   0  0  0  0  0  0  0  0  0  0  0  0
  -13.1805  -25.7175   17.0583 C   0  0  0  0  0  0  0  0  0  0  0  0
  -12.1508  -26.7338   17.4801 C   0  0  0  0  0  0  0  0  0  0  0  0
  -11.2386  -27.3846   16.4658 C   0  0  0  0  0  0  0  0  0  0  0  0
  -12.3822  -28.1672   17.0492 C   0  0  0  0  0  0  0  0  0  0  0  0
  -12.7154  -22.0116   19.2956 H   0  0  0  0  0  0  0  0  0  0  0  0
   -8.8918  -22.3436   22.5224 H   0  0  0  0  0  0  0  0  0  0  0  0
   -6.9447  -21.0057   22.2404 H   0  0  0  0  0  0  0  0  0  0  0  0
   -6.3129  -18.2883   22.0475 H   0  0  0  0  0  0  0  0  0  0  0  0
   -7.4714  -16.1099   21.5955 H   0  0  0  0  0  0  0  0  0  0  0  0
  -10.0305  -16.7054   20.8961 H   0  0  0  0  0  0  0  0  0  0  0  0
  -11.4017  -19.3003   20.7835 H   0  0  0  0  0  0  0  0  0  0  0  0
  -15.9436  -24.2440   18.0644 H   0  0  0  0  0  0  0  0  0  0  0  0
  -16.5744  -24.6142   15.8372 H   0  0  0  0  0  0  0  0  0  0  0  0
  -14.9190  -25.5951   14.2243 H   0  0  0  0  0  0  0  0  0  0  0  0
  -11.7736  -26.6391   18.4821 H   0  0  0  0  0  0  0  0  0  0  0  0
  -11.3083  -27.0832   15.4251 H   0  0  0  0  0  0  0  0  0  0  0  0
  -10.2217  -27.5942   16.7608 H   0  0  0  0  0  0  0  0  0  0  0  0
  -12.2293  -28.9165   17.8109 H   0  0  0  0  0  0  0  0  0  0  0  0
  -13.2144  -28.3965   16.3916 H   0  0  0  0  0  0  0  0  0  0  0  0
  1  2  2  0
  2  3  1  0
  3  4  1  0
  4  5  2  0
  4  6  2  0
  4  7  1  0
  7  8  2  0
  8  9  1  0
  9 10  2  0
 10 11  1  0
 11 12  1  0
 12 13  2  0
 13 14  1  0
 14 15  2  0
  2 16  1  0
 16 17  2  0
 17 18  1  0
 18 19  2  0
 19 20  1  0
 20 21  2  0
 21 22  1  0
 22 23  1  0
 23 24  1  0
 15  7  1  0
 21 16  1  0
 24 22  1  0
 14 10  1  0
  3 25  1  0
  8 26  1  0
  9 27  1  0
 11 28  1  0
 12 29  1  0
 13 30  1  0
 15 31  1  0
 17 32  1  0
 18 33  1  0
 19 34  1  0
 22 35  1  0
 23 36  1  0
 23 37  1  0
 24 38  1  0
 24 39  1  0
M  END
>  <Energy>  (623) 
151.54018557791019

>  <compound_id>  (623) 
5617

>  <target_id>  (623) 
1

>  <reference_id>  (623) 
48

>  <inspiration_ids>  (623) 
[48, 39]

>  <energy_score>  (623) 
148.276770930534

>  <distance_score>  (623) 
9.836890391140404

>  <path>  (623) 
/opt/xchem-fragalysis-2/maxwin/BulkDock/SCRATCH/511018/C5617-P48/C5617-P48.minimised.mol

>  <scratch_subdir>  (623) 
/opt/xchem-fragalysis-2/maxwin/BulkDock/SCRATCH/511018/C5617-P48

>  <fragmenstein_runtime>  (623) 
7.354385137557983

>  <fragmenstein_outcome>  (623) 
too moved

>  <fragmenstein_mode>  (623) 
expansion

>  <fragmenstein_error>  (623) 


$$$$
C5617-P39
     RDKit          3D

 39 42  0  0  0  0  0  0  0  0999 V2000
  -13.3848  -24.4175   19.9876 O   0  0  0  0  0  0  0  0  0  0  0  0
  -14.0821  -25.3859   20.1557 C   0  0  0  0  0  0  0  0  0  0  0  0
  -14.7593  -25.8756   21.8697 N   0  0  0  0  0  0  0  0  0  0  0  0
  -14.6494  -24.9225   23.6856 S   0  0  0  0  0  0  0  0  0  0  0  0
  -16.0072  -25.1103   24.1953 O   0  0  0  0  0  0  0  0  0  0  0  0
  -14.1944  -23.5584   23.4859 O   0  0  0  0  0  0  0  0  0  0  0  0
  -13.6893  -25.5745   25.0795 C   0  0  0  0  0  0  0  0  0  0  0  0
  -14.3017  -26.4981   25.9238 C   0  0  0  0  0  0  0  0  0  0  0  0
  -13.7753  -26.7963   27.1898 C   0  0  0  0  0  0  0  0  0  0  0  0
  -12.6372  -26.1098   27.6221 C   0  0  0  0  0  0  0  0  0  0  0  0
  -11.9234  -26.1932   28.7965 N   0  0  0  0  0  0  0  0  0  0  0  0
  -10.8903  -25.2970   28.7871 C   0  0  0  0  0  0  0  0  0  0  0  0
  -10.9555  -24.6003   27.6056 C   0  0  0  0  0  0  0  0  0  0  0  0
  -12.0404  -25.1193   26.8521 C   0  0  0  0  0  0  0  0  0  0  0  0
  -12.6102  -24.8130   25.5999 C   0  0  0  0  0  0  0  0  0  0  0  0
  -14.4750  -26.1622   18.4988 C   0  0  0  0  0  0  0  0  0  0  0  0
  -15.7301  -26.7352   18.0182 C   0  0  0  0  0  0  0  0  0  0  0  0
  -16.1943  -26.5966   16.6947 C   0  0  0  0  0  0  0  0  0  0  0  0
  -15.4449  -25.8419   15.8314 C   0  0  0  0  0  0  0  0  0  0  0  0
  -14.2087  -25.4515   16.1488 N   0  0  0  0  0  0  0  0  0  0  0  0
  -13.6754  -25.8855   17.3494 C   0  0  0  0  0  0  0  0  0  0  0  0
  -12.4484  -26.7942   17.0508 C   0  0  0  0  0  0  0  0  0  0  0  0
  -12.6789  -28.1930   16.5071 C   0  0  0  0  0  0  0  0  0  0  0  0
  -12.0359  -27.1585   15.6364 C   0  0  0  0  0  0  0  0  0  0  0  0
  -15.3457  -26.6093   21.7796 H   0  0  0  0  0  0  0  0  0  0  0  0
  -15.2242  -26.9906   25.6226 H   0  0  0  0  0  0  0  0  0  0  0  0
  -14.2371  -27.5711   27.7916 H   0  0  0  0  0  0  0  0  0  0  0  0
  -12.1464  -26.7969   29.5752 H   0  0  0  0  0  0  0  0  0  0  0  0
  -10.2169  -25.2211   29.6314 H   0  0  0  0  0  0  0  0  0  0  0  0
  -10.2854  -23.8063   27.3174 H   0  0  0  0  0  0  0  0  0  0  0  0
  -12.2406  -23.9248   25.0885 H   0  0  0  0  0  0  0  0  0  0  0  0
  -16.4546  -27.1754   18.6973 H   0  0  0  0  0  0  0  0  0  0  0  0
  -17.1753  -26.9583   16.4064 H   0  0  0  0  0  0  0  0  0  0  0  0
  -15.7962  -25.5651   14.8437 H   0  0  0  0  0  0  0  0  0  0  0  0
  -11.5984  -26.6433   17.6841 H   0  0  0  0  0  0  0  0  0  0  0  0
  -12.0597  -29.0017   16.8710 H   0  0  0  0  0  0  0  0  0  0  0  0
  -13.6841  -28.4999   16.2431 H   0  0  0  0  0  0  0  0  0  0  0  0
  -12.5996  -26.7709   14.7960 H   0  0  0  0  0  0  0  0  0  0  0  0
  -10.9733  -27.2393   15.4326 H   0  0  0  0  0  0  0  0  0  0  0  0
  1  2  2  0
  2  3  1  0
  3  4  1  0
  4  5  2  0
  4  6  2  0
  4  7  1  0
  7  8  2  0
  8  9  1  0
  9 10  2  0
 10 11  1  0
 11 12  1  0
 12 13  2  0
 13 14  1  0
 14 15  2  0
  2 16  1  0
 16 17  2  0
 17 18  1  0
 18 19  2  0
 19 20  1  0
 20 21  2  0
 21 22  1  0
 22 23  1  0
 23 24  1  0
 15  7  1  0
 21 16  1  0
 24 22  1  0
 14 10  1  0
  3 25  1  0
  8 26  1  0
  9 27  1  0
 11 28  1  0
 12 29  1  0
 13 30  1  0
 15 31  1  0
 17 32  1  0
 18 33  1  0
 19 34  1  0
 22 35  1  0
 23 36  1  0
 23 37  1  0
 24 38  1  0
 24 39  1  0
M  END
>  <Energy>  (624) 
189.92568612074285

>  <compound_id>  (624) 
5617

>  <target_id>  (624) 
1

>  <reference_id>  (624) 
39

>  <inspiration_ids>  (624) 
[48, 39]

>  <energy_score>  (624) 
186.66227147336866

>  <distance_score>  (624) 
7.544644002807937

>  <path>  (624) 
/opt/xchem-fragalysis-2/maxwin/BulkDock/SCRATCH/511018/C5617-P39/C5617-P39.minimised.mol

>  <scratch_subdir>  (624) 
/opt/xchem-fragalysis-2/maxwin/BulkDock/SCRATCH/511018/C5617-P39

>  <fragmenstein_runtime>  (624) 
9.781098127365112

>  <fragmenstein_outcome>  (624) 
too moved

>  <fragmenstein_mode>  (624) 
expansion

>  <fragmenstein_error>  (624) 


$$$$
C5618-P48
     RDKit          3D

 44 47  0  0  0  0  0  0  0  0999 V2000
  -19.0069  -26.5558   20.4182 O   0  0  0  0  0  0  0  0  0  0  0  0
  -17.8865  -26.8231   20.6515 C   0  0  0  0  0  0  0  0  0  0  0  0
  -17.1641  -26.9191   21.9988 N   0  0  0  0  0  0  0  0  0  0  0  0
  -17.6315  -26.6118   23.3607 C   0  0  0  0  0  0  0  0  0  0  0  0
  -16.9194  -27.1878   24.6349 C   0  0  0  0  0  0  0  0  0  0  0  0
  -15.5904  -26.6439   25.1418 C   0  0  0  0  0  0  0  0  0  0  0  0
  -15.1929  -25.3330   24.9146 C   0  0  0  0  0  0  0  0  0  0  0  0
  -13.9619  -24.8274   25.3593 C   0  0  0  0  0  0  0  0  0  0  0  0
  -13.1675  -25.6536   26.1636 C   0  0  0  0  0  0  0  0  0  0  0  0
  -12.0140  -25.3711   26.8603 N   0  0  0  0  0  0  0  0  0  0  0  0
  -11.6684  -26.4549   27.6201 C   0  0  0  0  0  0  0  0  0  0  0  0
  -12.5774  -27.4597   27.3867 C   0  0  0  0  0  0  0  0  0  0  0  0
  -13.5563  -26.9495   26.4960 C   0  0  0  0  0  0  0  0  0  0  0  0
  -14.7770  -27.4406   25.9790 C   0  0  0  0  0  0  0  0  0  0  0  0
  -16.7195  -27.0715   19.7005 N   0  0  0  0  0  0  0  0  0  0  0  0
  -16.6363  -26.9568   18.2746 C   0  0  0  0  0  0  0  0  0  0  0  0
  -17.7708  -26.6709   17.5094 C   0  0  0  0  0  0  0  0  0  0  0  0
  -17.6880  -26.4991   16.1207 C   0  0  0  0  0  0  0  0  0  0  0  0
  -16.4589  -26.6101   15.5122 C   0  0  0  0  0  0  0  0  0  0  0  0
  -15.3377  -26.8820   16.1997 N   0  0  0  0  0  0  0  0  0  0  0  0
  -15.4092  -27.0511   17.5634 C   0  0  0  0  0  0  0  0  0  0  0  0
  -14.0811  -27.3052   18.2584 C   0  0  0  0  0  0  0  0  0  0  0  0
  -13.3915  -28.6385   18.0733 C   0  0  0  0  0  0  0  0  0  0  0  0
  -12.8062  -27.4127   17.4435 C   0  0  0  0  0  0  0  0  0  0  0  0
  -16.1942  -27.0877   21.8423 H   0  0  0  0  0  0  0  0  0  0  0  0
  -18.6730  -26.9558   23.3806 H   0  0  0  0  0  0  0  0  0  0  0  0
  -17.6824  -25.5196   23.4198 H   0  0  0  0  0  0  0  0  0  0  0  0
  -17.6220  -27.0415   25.4675 H   0  0  0  0  0  0  0  0  0  0  0  0
  -16.8384  -28.2728   24.4995 H   0  0  0  0  0  0  0  0  0  0  0  0
  -15.8861  -24.6330   24.4545 H   0  0  0  0  0  0  0  0  0  0  0  0
  -13.7189  -23.7768   25.2012 H   0  0  0  0  0  0  0  0  0  0  0  0
  -11.5504  -24.4695   26.8789 H   0  0  0  0  0  0  0  0  0  0  0  0
  -10.8283  -26.4042   28.2952 H   0  0  0  0  0  0  0  0  0  0  0  0
  -12.5781  -28.4297   27.8687 H   0  0  0  0  0  0  0  0  0  0  0  0
  -15.1074  -28.4391   26.2597 H   0  0  0  0  0  0  0  0  0  0  0  0
  -15.9207  -27.3558   20.2239 H   0  0  0  0  0  0  0  0  0  0  0  0
  -18.7454  -26.5687   17.9808 H   0  0  0  0  0  0  0  0  0  0  0  0
  -18.5757  -26.2731   15.5397 H   0  0  0  0  0  0  0  0  0  0  0  0
  -16.3379  -26.4790   14.4418 H   0  0  0  0  0  0  0  0  0  0  0  0
  -13.9435  -26.7790   19.1969 H   0  0  0  0  0  0  0  0  0  0  0  0
  -13.8455  -29.3675   17.4100 H   0  0  0  0  0  0  0  0  0  0  0  0
  -12.8379  -29.0733   18.8926 H   0  0  0  0  0  0  0  0  0  0  0  0
  -12.8543  -27.3240   16.3634 H   0  0  0  0  0  0  0  0  0  0  0  0
  -11.9056  -26.9863   17.8667 H   0  0  0  0  0  0  0  0  0  0  0  0
  1  2  2  0
  2  3  1  0
  3  4  1  0
  4  5  1  0
  5  6  1  0
  6  7  2  0
  7  8  1  0
  8  9  2  0
  9 10  1  0
 10 11  1  0
 11 12  2  0
 12 13  1  0
 13 14  2  0
  2 15  1  0
 15 16  1  0
 16 17  2  0
 17 18  1  0
 18 19  2  0
 19 20  1  0
 20 21  2  0
 21 22  1  0
 22 23  1  0
 23 24  1  0
 14  6  1  0
 21 16  1  0
 24 22  1  0
 13  9  1  0
  3 25  1  0
  4 26  1  0
  4 27  1  0
  5 28  1  0
  5 29  1  0
  7 30  1  0
  8 31  1  0
 10 32  1  0
 11 33  1  0
 12 34  1  0
 14 35  1  0
 15 36  1  0
 17 37  1  0
 18 38  1  0
 19 39  1  0
 22 40  1  0
 23 41  1  0
 23 42  1  0
 24 43  1  0
 24 44  1  0
M  END
>  <Energy>  (625) 
32.254836802938392

>  <compound_id>  (625) 
5618

>  <target_id>  (625) 
1

>  <reference_id>  (625) 
48

>  <inspiration_ids>  (625) 
[48, 39]

>  <energy_score>  (625) 
-10.98575543980094

>  <distance_score>  (625) 
8.45965440521862

>  <path>  (625) 
/opt/xchem-fragalysis-2/maxwin/BulkDock/SCRATCH/511018/C5618-P48/C5618-P48.minimised.mol

>  <scratch_subdir>  (625) 
/opt/xchem-fragalysis-2/maxwin/BulkDock/SCRATCH/511018/C5618-P48

>  <fragmenstein_runtime>  (625) 
15.562205791473389

>  <fragmenstein_outcome>  (625) 
too moved

>  <fragmenstein_mode>  (625) 
expansion

>  <fragmenstein_error>  (625) 


$$$$
C5618-P39
     RDKit          3D

 44 47  0  0  0  0  0  0  0  0999 V2000
  -11.4042  -27.3150   24.2993 O   0  0  0  0  0  0  0  0  0  0  0  0
  -10.6087  -27.6420   25.1025 C   0  0  0  0  0  0  0  0  0  0  0  0
  -10.2287  -27.0101   26.3715 N   0  0  0  0  0  0  0  0  0  0  0  0
  -10.7887  -25.8408   27.0751 C   0  0  0  0  0  0  0  0  0  0  0  0
  -10.7108  -26.2067   28.5742 C   0  0  0  0  0  0  0  0  0  0  0  0
  -10.9989  -25.2630   29.7013 C   0  0  0  0  0  0  0  0  0  0  0  0
  -10.3009  -25.4879   30.9038 C   0  0  0  0  0  0  0  0  0  0  0  0
  -10.5655  -24.7796   32.0709 C   0  0  0  0  0  0  0  0  0  0  0  0
  -11.6048  -23.8621   32.0185 C   0  0  0  0  0  0  0  0  0  0  0  0
  -12.1558  -23.1127   33.0303 N   0  0  0  0  0  0  0  0  0  0  0  0
  -13.2027  -22.3817   32.5536 C   0  0  0  0  0  0  0  0  0  0  0  0
  -13.3495  -22.6961   31.2260 C   0  0  0  0  0  0  0  0  0  0  0  0
  -12.3340  -23.6117   30.8571 C   0  0  0  0  0  0  0  0  0  0  0  0
  -12.0187  -24.3093   29.6698 C   0  0  0  0  0  0  0  0  0  0  0  0
   -9.7005  -29.0178   25.1427 N   0  0  0  0  0  0  0  0  0  0  0  0
   -9.6735  -30.1636   24.2425 C   0  0  0  0  0  0  0  0  0  0  0  0
   -9.3292  -30.0715   22.8779 C   0  0  0  0  0  0  0  0  0  0  0  0
   -9.4008  -31.1617   22.0163 C   0  0  0  0  0  0  0  0  0  0  0  0
   -9.8021  -32.3606   22.5178 C   0  0  0  0  0  0  0  0  0  0  0  0
  -10.0594  -32.5302   23.8216 N   0  0  0  0  0  0  0  0  0  0  0  0
   -9.9534  -31.4675   24.6897 C   0  0  0  0  0  0  0  0  0  0  0  0
  -10.1335  -31.8030   26.1622 C   0  0  0  0  0  0  0  0  0  0  0  0
  -11.5105  -31.9077   26.7729 C   0  0  0  0  0  0  0  0  0  0  0  0
  -10.6904  -33.1459   26.5922 C   0  0  0  0  0  0  0  0  0  0  0  0
   -9.4646  -27.4989   26.7617 H   0  0  0  0  0  0  0  0  0  0  0  0
  -10.2090  -24.9417   26.8603 H   0  0  0  0  0  0  0  0  0  0  0  0
  -11.8190  -25.6865   26.7417 H   0  0  0  0  0  0  0  0  0  0  0  0
  -11.3535  -27.0836   28.7354 H   0  0  0  0  0  0  0  0  0  0  0  0
   -9.6795  -26.5477   28.7352 H   0  0  0  0  0  0  0  0  0  0  0  0
   -9.5456  -26.2710   30.9663 H   0  0  0  0  0  0  0  0  0  0  0  0
  -10.0238  -24.9937   32.9854 H   0  0  0  0  0  0  0  0  0  0  0  0
  -11.8877  -23.1636   34.0047 H   0  0  0  0  0  0  0  0  0  0  0  0
  -13.7971  -21.7704   33.2179 H   0  0  0  0  0  0  0  0  0  0  0  0
  -14.1783  -22.3633   30.6310 H   0  0  0  0  0  0  0  0  0  0  0  0
  -12.6155  -24.1503   28.7788 H   0  0  0  0  0  0  0  0  0  0  0  0
   -9.1808  -29.0479   25.9835 H   0  0  0  0  0  0  0  0  0  0  0  0
   -9.0930  -29.1364   22.4145 H   0  0  0  0  0  0  0  0  0  0  0  0
   -9.1724  -31.0758   20.9794 H   0  0  0  0  0  0  0  0  0  0  0  0
   -9.8987  -33.2432   21.8961 H   0  0  0  0  0  0  0  0  0  0  0  0
   -9.3143  -31.4774   26.7937 H   0  0  0  0  0  0  0  0  0  0  0  0
  -11.6496  -31.5395   27.7812 H   0  0  0  0  0  0  0  0  0  0  0  0
  -12.3801  -31.8147   26.1351 H   0  0  0  0  0  0  0  0  0  0  0  0
  -10.9976  -33.8547   25.8311 H   0  0  0  0  0  0  0  0  0  0  0  0
  -10.2583  -33.6093   27.4717 H   0  0  0  0  0  0  0  0  0  0  0  0
  1  2  2  0
  2  3  1  0
  3  4  1  0
  4  5  1  0
  5  6  1  0
  6  7  2  0
  7  8  1  0
  8  9  2  0
  9 10  1  0
 10 11  1  0
 11 12  2  0
 12 13  1  0
 13 14  2  0
  2 15  1  0
 15 16  1  0
 16 17  2  0
 17 18  1  0
 18 19  2  0
 19 20  1  0
 20 21  2  0
 21 22  1  0
 22 23  1  0
 23 24  1  0
 14  6  1  0
 21 16  1  0
 24 22  1  0
 13  9  1  0
  3 25  1  0
  4 26  1  0
  4 27  1  0
  5 28  1  0
  5 29  1  0
  7 30  1  0
  8 31  1  0
 10 32  1  0
 11 33  1  0
 12 34  1  0
 14 35  1  0
 15 36  1  0
 17 37  1  0
 18 38  1  0
 19 39  1  0
 22 40  1  0
 23 41  1  0
 23 42  1  0
 24 43  1  0
 24 44  1  0
M  END
>  <Energy>  (626) 
58.621486518881781

>  <compound_id>  (626) 
5618

>  <target_id>  (626) 
1

>  <reference_id>  (626) 
39

>  <inspiration_ids>  (626) 
[48, 39]

>  <energy_score>  (626) 
15.380894276141163

>  <distance_score>  (626) 
11.425538407395608

>  <path>  (626) 
/opt/xchem-fragalysis-2/maxwin/BulkDock/SCRATCH/511018/C5618-P39/C5618-P39.minimised.mol

>  <scratch_subdir>  (626) 
/opt/xchem-fragalysis-2/maxwin/BulkDock/SCRATCH/511018/C5618-P39

>  <fragmenstein_runtime>  (626) 
14.804363489151001

>  <fragmenstein_outcome>  (626) 
too moved

>  <fragmenstein_mode>  (626) 
expansion

>  <fragmenstein_error>  (626) 


$$$$
C5619-P48
     RDKit          3D

 41 44  0  0  0  0  0  0  0  0999 V2000
  -10.0047  -26.5590   21.3598 O   0  0  0  0  0  0  0  0  0  0  0  0
  -10.7580  -26.2284   22.0779 C   0  0  0  0  0  0  0  0  0  0  0  0
  -10.9354  -26.5335   24.1453 N   0  0  0  0  0  0  0  0  0  0  0  0
  -10.1730  -27.3396   25.1014 C   0  0  0  0  0  0  0  0  0  0  0  0
  -11.1944  -27.6472   26.3759 C   0  0  0  0  0  0  0  0  0  0  0  0
  -12.5603  -27.2768   26.4139 C   0  0  0  0  0  0  0  0  0  0  0  0
  -13.3261  -27.2667   27.5921 C   0  0  0  0  0  0  0  0  0  0  0  0
  -12.6749  -27.5569   28.7827 C   0  0  0  0  0  0  0  0  0  0  0  0
  -13.1185  -27.5117   30.0825 N   0  0  0  0  0  0  0  0  0  0  0  0
  -12.1225  -27.9201   30.9279 C   0  0  0  0  0  0  0  0  0  0  0  0
  -11.0310  -28.2618   30.1647 C   0  0  0  0  0  0  0  0  0  0  0  0
  -11.3643  -28.0123   28.8090 C   0  0  0  0  0  0  0  0  0  0  0  0
  -10.6626  -28.1290   27.5928 C   0  0  0  0  0  0  0  0  0  0  0  0
  -12.3998  -25.2957   21.2606 N   0  0  0  0  0  0  0  0  0  0  0  0
  -12.8544  -25.0964   19.6029 C   0  0  0  0  0  0  0  0  0  0  0  0
  -12.3160  -26.1675   18.6333 C   0  0  0  0  0  0  0  0  0  0  0  0
  -12.6805  -26.5537   17.3161 C   0  0  0  0  0  0  0  0  0  0  0  0
  -13.8184  -26.0331   16.8188 C   0  0  0  0  0  0  0  0  0  0  0  0
  -14.5494  -25.2967   17.7236 C   0  0  0  0  0  0  0  0  0  0  0  0
  -15.9912  -24.9621   17.3248 C   0  0  0  0  0  0  0  0  0  0  0  0
  -16.8437  -25.9312   16.5225 C   0  0  0  0  0  0  0  0  0  0  0  0
  -17.1507  -25.6996   17.9647 C   0  0  0  0  0  0  0  0  0  0  0  0
  -14.0572  -24.9155   19.0442 N   0  0  0  0  0  0  0  0  0  0  0  0
  -11.7058  -26.0298   24.5819 H   0  0  0  0  0  0  0  0  0  0  0  0
   -9.3955  -27.9880   24.8170 H   0  0  0  0  0  0  0  0  0  0  0  0
   -9.9065  -26.4016   25.6277 H   0  0  0  0  0  0  0  0  0  0  0  0
  -13.1266  -26.9863   25.5398 H   0  0  0  0  0  0  0  0  0  0  0  0
  -14.3836  -27.0331   27.5716 H   0  0  0  0  0  0  0  0  0  0  0  0
  -14.0399  -27.2169   30.3761 H   0  0  0  0  0  0  0  0  0  0  0  0
  -12.2796  -27.9464   31.9984 H   0  0  0  0  0  0  0  0  0  0  0  0
  -10.0877  -28.6316   30.5458 H   0  0  0  0  0  0  0  0  0  0  0  0
   -9.6698  -28.5547   27.6492 H   0  0  0  0  0  0  0  0  0  0  0  0
  -13.0523  -25.1421   21.9473 H   0  0  0  0  0  0  0  0  0  0  0  0
  -11.4414  -26.7237   18.8800 H   0  0  0  0  0  0  0  0  0  0  0  0
  -12.0709  -27.2554   16.7567 H   0  0  0  0  0  0  0  0  0  0  0  0
  -14.1793  -26.2832   15.8310 H   0  0  0  0  0  0  0  0  0  0  0  0
  -16.1645  -23.9224   17.0808 H   0  0  0  0  0  0  0  0  0  0  0  0
  -17.5238  -25.5129   15.7881 H   0  0  0  0  0  0  0  0  0  0  0  0
  -16.4611  -26.9090   16.2553 H   0  0  0  0  0  0  0  0  0  0  0  0
  -16.9357  -26.4997   18.6639 H   0  0  0  0  0  0  0  0  0  0  0  0
  -18.0276  -25.1149   18.2223 H   0  0  0  0  0  0  0  0  0  0  0  0
  1  2  2  0
  2  3  1  0
  3  4  1  0
  4  5  1  0
  5  6  2  0
  6  7  1  0
  7  8  2  0
  8  9  1  0
  9 10  1  0
 10 11  2  0
 11 12  1  0
 12 13  2  0
  2 14  1  0
 14 15  1  0
 15 16  2  0
 16 17  1  0
 17 18  2  0
 18 19  1  0
 19 20  1  0
 20 21  1  0
 21 22  1  0
 19 23  2  0
 13  5  1  0
 23 15  1  0
 12  8  1  0
 22 20  1  0
  3 24  1  0
  4 25  1  0
  4 26  1  0
  6 27  1  0
  7 28  1  0
  9 29  1  0
 10 30  1  0
 11 31  1  0
 13 32  1  0
 14 33  1  0
 16 34  1  0
 17 35  1  0
 18 36  1  0
 20 37  1  0
 21 38  1  0
 21 39  1  0
 22 40  1  0
 22 41  1  0
M  END
>  <Energy>  (627) 
421.36331799727617

>  <compound_id>  (627) 
5619

>  <target_id>  (627) 
1

>  <reference_id>  (627) 
48

>  <inspiration_ids>  (627) 
[48, 39]

>  <energy_score>  (627) 
442.23900411784115

>  <distance_score>  (627) 
7.6059278634762375

>  <path>  (627) 
/opt/xchem-fragalysis-2/maxwin/BulkDock/SCRATCH/511018/C5619-P48/C5619-P48.minimised.mol

>  <scratch_subdir>  (627) 
/opt/xchem-fragalysis-2/maxwin/BulkDock/SCRATCH/511018/C5619-P48

>  <fragmenstein_runtime>  (627) 
5.521844387054443

>  <fragmenstein_outcome>  (627) 
too moved

>  <fragmenstein_mode>  (627) 
expansion

>  <fragmenstein_error>  (627) 


$$$$
C5619-P39
     RDKit          3D

 41 44  0  0  0  0  0  0  0  0999 V2000
  -18.7741  -29.4826   20.9383 O   0  0  0  0  0  0  0  0  0  0  0  0
  -18.6310  -28.3153   20.9396 C   0  0  0  0  0  0  0  0  0  0  0  0
  -18.5081  -27.3486   22.1034 N   0  0  0  0  0  0  0  0  0  0  0  0
  -18.6285  -27.5726   23.5504 C   0  0  0  0  0  0  0  0  0  0  0  0
  -17.4221  -27.2407   24.4400 C   0  0  0  0  0  0  0  0  0  0  0  0
  -17.1782  -27.9647   25.6209 C   0  0  0  0  0  0  0  0  0  0  0  0
  -16.0884  -27.6932   26.4759 C   0  0  0  0  0  0  0  0  0  0  0  0
  -15.2233  -26.6562   26.1167 C   0  0  0  0  0  0  0  0  0  0  0  0
  -14.0356  -26.2336   26.6739 N   0  0  0  0  0  0  0  0  0  0  0  0
  -13.5502  -25.1562   25.9864 C   0  0  0  0  0  0  0  0  0  0  0  0
  -14.4397  -24.8752   24.9742 C   0  0  0  0  0  0  0  0  0  0  0  0
  -15.4614  -25.8607   24.9993 C   0  0  0  0  0  0  0  0  0  0  0  0
  -16.5763  -26.1578   24.1784 C   0  0  0  0  0  0  0  0  0  0  0  0
  -18.4145  -27.3581   19.7849 N   0  0  0  0  0  0  0  0  0  0  0  0
  -18.2303  -27.6028   18.4087 C   0  0  0  0  0  0  0  0  0  0  0  0
  -18.0641  -28.8694   17.8751 C   0  0  0  0  0  0  0  0  0  0  0  0
  -17.6639  -29.0038   16.5386 C   0  0  0  0  0  0  0  0  0  0  0  0
  -17.4530  -27.8715   15.7597 C   0  0  0  0  0  0  0  0  0  0  0  0
  -17.6662  -26.6219   16.3297 C   0  0  0  0  0  0  0  0  0  0  0  0
  -17.4556  -25.3573   15.5318 C   0  0  0  0  0  0  0  0  0  0  0  0
  -18.3142  -25.0675   14.3217 C   0  0  0  0  0  0  0  0  0  0  0  0
  -18.4994  -24.2641   15.5732 C   0  0  0  0  0  0  0  0  0  0  0  0
  -18.0456  -26.5028   17.6383 N   0  0  0  0  0  0  0  0  0  0  0  0
  -18.4782  -26.4092   21.7538 H   0  0  0  0  0  0  0  0  0  0  0  0
  -19.4801  -26.9733   23.8903 H   0  0  0  0  0  0  0  0  0  0  0  0
  -18.8838  -28.6306   23.6772 H   0  0  0  0  0  0  0  0  0  0  0  0
  -17.8429  -28.7870   25.8878 H   0  0  0  0  0  0  0  0  0  0  0  0
  -15.9164  -28.3020   27.3576 H   0  0  0  0  0  0  0  0  0  0  0  0
  -13.5593  -26.6893   27.4397 H   0  0  0  0  0  0  0  0  0  0  0  0
  -12.6285  -24.6715   26.2819 H   0  0  0  0  0  0  0  0  0  0  0  0
  -14.3435  -24.0590   24.2702 H   0  0  0  0  0  0  0  0  0  0  0  0
  -16.7831  -25.5565   23.3086 H   0  0  0  0  0  0  0  0  0  0  0  0
  -18.4132  -26.4208   20.1270 H   0  0  0  0  0  0  0  0  0  0  0  0
  -18.1998  -29.7565   18.4849 H   0  0  0  0  0  0  0  0  0  0  0  0
  -17.5149  -29.9939   16.1158 H   0  0  0  0  0  0  0  0  0  0  0  0
  -17.1413  -27.9621   14.7246 H   0  0  0  0  0  0  0  0  0  0  0  0
  -16.4237  -25.0173   15.4849 H   0  0  0  0  0  0  0  0  0  0  0  0
  -17.8459  -24.5834   13.4726 H   0  0  0  0  0  0  0  0  0  0  0  0
  -19.1007  -25.7648   14.0550 H   0  0  0  0  0  0  0  0  0  0  0  0
  -19.3974  -24.4298   16.1588 H   0  0  0  0  0  0  0  0  0  0  0  0
  -18.1572  -23.2366   15.5782 H   0  0  0  0  0  0  0  0  0  0  0  0
  1  2  2  0
  2  3  1  0
  3  4  1  0
  4  5  1  0
  5  6  2  0
  6  7  1  0
  7  8  2  0
  8  9  1  0
  9 10  1  0
 10 11  2  0
 11 12  1  0
 12 13  2  0
  2 14  1  0
 14 15  1  0
 15 16  2  0
 16 17  1  0
 17 18  2  0
 18 19  1  0
 19 20  1  0
 20 21  1  0
 21 22  1  0
 19 23  2  0
 13  5  1  0
 23 15  1  0
 12  8  1  0
 22 20  1  0
  3 24  1  0
  4 25  1  0
  4 26  1  0
  6 27  1  0
  7 28  1  0
  9 29  1  0
 10 30  1  0
 11 31  1  0
 13 32  1  0
 14 33  1  0
 16 34  1  0
 17 35  1  0
 18 36  1  0
 20 37  1  0
 21 38  1  0
 21 39  1  0
 22 40  1  0
 22 41  1  0
M  END
>  <Energy>  (628) 
-41.489825934034137

>  <compound_id>  (628) 
5619

>  <target_id>  (628) 
1

>  <reference_id>  (628) 
39

>  <inspiration_ids>  (628) 
[48, 39]

>  <energy_score>  (628) 
-20.614139813467744

>  <distance_score>  (628) 
9.346363651896752

>  <path>  (628) 
/opt/xchem-fragalysis-2/maxwin/BulkDock/SCRATCH/511018/C5619-P39/C5619-P39.minimised.mol

>  <scratch_subdir>  (628) 
/opt/xchem-fragalysis-2/maxwin/BulkDock/SCRATCH/511018/C5619-P39

>  <fragmenstein_runtime>  (628) 
11.962355852127075

>  <fragmenstein_outcome>  (628) 
too moved

>  <fragmenstein_mode>  (628) 
expansion

>  <fragmenstein_error>  (628) 


$$$$
C5620-P48
     RDKit          3D

 36 39  0  0  0  0  0  0  0  0999 V2000
  -14.3396  -24.4696   18.5022 O   0  0  0  0  0  0  0  0  0  0  0  0
  -13.3934  -24.9958   19.0501 C   0  0  0  0  0  0  0  0  0  0  0  0
  -12.4316  -24.4134   20.3547 N   0  0  0  0  0  0  0  0  0  0  0  0
  -12.5087  -22.8825   21.2622 C   0  0  0  0  0  0  0  0  0  0  0  0
  -11.5283  -21.9207   21.4212 C   0  0  0  0  0  0  0  0  0  0  0  0
  -11.6613  -20.8849   22.4661 C   0  0  0  0  0  0  0  0  0  0  0  0
  -12.8536  -20.8149   23.3703 C   0  0  0  0  0  0  0  0  0  0  0  0
  -13.7490  -19.8009   23.7362 N   0  0  0  0  0  0  0  0  0  0  0  0
  -15.0327  -20.2571   23.9328 C   0  0  0  0  0  0  0  0  0  0  0  0
  -14.9538  -21.6252   24.0253 C   0  0  0  0  0  0  0  0  0  0  0  0
  -13.6322  -21.9233   23.5900 C   0  0  0  0  0  0  0  0  0  0  0  0
  -13.1184  -22.8852   22.7394 C   0  0  0  0  0  0  0  0  0  0  0  0
  -13.0094  -26.3911   18.2672 C   0  0  0  0  0  0  0  0  0  0  0  0
  -12.6639  -26.1969   16.6719 C   0  0  0  0  0  0  0  0  0  0  0  0
  -11.4183  -26.5612   16.1479 C   0  0  0  0  0  0  0  0  0  0  0  0
  -11.1730  -26.5021   14.7692 C   0  0  0  0  0  0  0  0  0  0  0  0
  -12.1828  -26.1017   13.9093 C   0  0  0  0  0  0  0  0  0  0  0  0
  -13.3997  -25.7793   14.4732 C   0  0  0  0  0  0  0  0  0  0  0  0
  -13.6539  -25.8267   15.8075 N   0  0  0  0  0  0  0  0  0  0  0  0
  -13.0250  -27.8735   18.6052 C   0  0  0  0  0  0  0  0  0  0  0  0
  -14.3434  -27.2720   18.3960 C   0  0  0  0  0  0  0  0  0  0  0  0
  -11.6696  -25.0496   20.5269 H   0  0  0  0  0  0  0  0  0  0  0  0
  -10.6643  -21.8373   20.7797 H   0  0  0  0  0  0  0  0  0  0  0  0
  -10.9742  -20.0532   22.3454 H   0  0  0  0  0  0  0  0  0  0  0  0
  -13.5569  -18.8402   23.4980 H   0  0  0  0  0  0  0  0  0  0  0  0
  -15.8601  -19.5697   24.0445 H   0  0  0  0  0  0  0  0  0  0  0  0
  -15.7889  -22.2957   24.1738 H   0  0  0  0  0  0  0  0  0  0  0  0
  -12.1943  -22.9476   23.3850 H   0  0  0  0  0  0  0  0  0  0  0  0
  -10.6316  -26.9078   16.8085 H   0  0  0  0  0  0  0  0  0  0  0  0
  -10.1933  -26.7718   14.3827 H   0  0  0  0  0  0  0  0  0  0  0  0
  -12.0266  -26.0431   12.8392 H   0  0  0  0  0  0  0  0  0  0  0  0
  -14.2377  -25.4593   13.8607 H   0  0  0  0  0  0  0  0  0  0  0  0
  -12.6878  -28.5785   17.8466 H   0  0  0  0  0  0  0  0  0  0  0  0
  -12.7504  -28.2317   19.5596 H   0  0  0  0  0  0  0  0  0  0  0  0
  -14.8926  -27.4845   17.4848 H   0  0  0  0  0  0  0  0  0  0  0  0
  -14.9866  -27.0949   19.2485 H   0  0  0  0  0  0  0  0  0  0  0  0
  1  2  2  0
  2  3  1  0
  3  4  1  0
  4  5  2  0
  5  6  1  0
  6  7  2  0
  7  8  1  0
  8  9  1  0
  9 10  2  0
 10 11  1  0
 11 12  2  0
  2 13  1  0
 13 14  1  0
 14 15  2  0
 15 16  1  0
 16 17  2  0
 17 18  1  0
 18 19  2  0
 13 20  1  0
 20 21  1  0
 12  4  1  0
 21 13  1  0
 11  7  1  0
 19 14  1  0
  3 22  1  0
  5 23  1  0
  6 24  1  0
  8 25  1  0
  9 26  1  0
 10 27  1  0
 12 28  1  0
 15 29  1  0
 16 30  1  0
 17 31  1  0
 18 32  1  0
 20 33  1  0
 20 34  1  0
 21 35  1  0
 21 36  1  0
M  END
>  <Energy>  (629) 
298.43253861315355

>  <compound_id>  (629) 
5620

>  <target_id>  (629) 
1

>  <reference_id>  (629) 
48

>  <inspiration_ids>  (629) 
[48, 39]

>  <energy_score>  (629) 
238.96114026759489

>  <distance_score>  (629) 
8.552117561647865

>  <path>  (629) 
/opt/xchem-fragalysis-2/maxwin/BulkDock/SCRATCH/511018/C5620-P48/C5620-P48.minimised.mol

>  <scratch_subdir>  (629) 
/opt/xchem-fragalysis-2/maxwin/BulkDock/SCRATCH/511018/C5620-P48

>  <fragmenstein_runtime>  (629) 
6.884030818939209

>  <fragmenstein_outcome>  (629) 
too moved

>  <fragmenstein_mode>  (629) 
expansion

>  <fragmenstein_error>  (629) 


$$$$
C5620-P39
     RDKit          3D

 36 39  0  0  0  0  0  0  0  0999 V2000
  -13.0210  -24.3516   19.7339 O   0  0  0  0  0  0  0  0  0  0  0  0
  -13.7997  -25.2342   19.4949 C   0  0  0  0  0  0  0  0  0  0  0  0
  -14.6804  -26.0657   20.4375 N   0  0  0  0  0  0  0  0  0  0  0  0
  -14.9638  -25.9504   22.2352 C   0  0  0  0  0  0  0  0  0  0  0  0
  -14.4504  -25.0084   23.2640 C   0  0  0  0  0  0  0  0  0  0  0  0
  -14.5743  -25.0137   24.6684 C   0  0  0  0  0  0  0  0  0  0  0  0
  -15.4027  -25.9849   25.1595 C   0  0  0  0  0  0  0  0  0  0  0  0
  -15.7267  -26.2900   26.4532 N   0  0  0  0  0  0  0  0  0  0  0  0
  -16.6971  -27.2493   26.4751 C   0  0  0  0  0  0  0  0  0  0  0  0
  -17.0203  -27.5414   25.1679 C   0  0  0  0  0  0  0  0  0  0  0  0
  -16.1739  -26.7728   24.3181 C   0  0  0  0  0  0  0  0  0  0  0  0
  -16.0122  -26.6670   22.8908 C   0  0  0  0  0  0  0  0  0  0  0  0
  -13.9874  -25.7563   17.7129 C   0  0  0  0  0  0  0  0  0  0  0  0
  -14.4888  -24.8585   16.4343 C   0  0  0  0  0  0  0  0  0  0  0  0
  -13.8604  -25.0797   15.1699 C   0  0  0  0  0  0  0  0  0  0  0  0
  -14.4745  -24.8234   13.9393 C   0  0  0  0  0  0  0  0  0  0  0  0
  -15.7854  -24.4149   13.9425 C   0  0  0  0  0  0  0  0  0  0  0  0
  -16.3919  -24.2768   15.1769 C   0  0  0  0  0  0  0  0  0  0  0  0
  -15.7874  -24.4733   16.3898 N   0  0  0  0  0  0  0  0  0  0  0  0
  -13.2180  -27.0452   17.3104 C   0  0  0  0  0  0  0  0  0  0  0  0
  -14.7209  -27.0897   17.2435 C   0  0  0  0  0  0  0  0  0  0  0  0
  -15.2637  -26.6537   19.9004 H   0  0  0  0  0  0  0  0  0  0  0  0
  -14.0259  -24.0561   22.9078 H   0  0  0  0  0  0  0  0  0  0  0  0
  -14.0807  -24.2675   25.2795 H   0  0  0  0  0  0  0  0  0  0  0  0
  -15.3386  -25.8200   27.2555 H   0  0  0  0  0  0  0  0  0  0  0  0
  -17.0983  -27.6201   27.4091 H   0  0  0  0  0  0  0  0  0  0  0  0
  -17.7742  -28.2519   24.8541 H   0  0  0  0  0  0  0  0  0  0  0  0
  -16.8082  -27.1550   22.3377 H   0  0  0  0  0  0  0  0  0  0  0  0
  -12.8680  -25.5233   15.1286 H   0  0  0  0  0  0  0  0  0  0  0  0
  -13.9394  -24.9908   13.0098 H   0  0  0  0  0  0  0  0  0  0  0  0
  -16.3294  -24.2252   13.0256 H   0  0  0  0  0  0  0  0  0  0  0  0
  -17.4352  -23.9750   15.2455 H   0  0  0  0  0  0  0  0  0  0  0  0
  -12.6780  -27.6719   17.9974 H   0  0  0  0  0  0  0  0  0  0  0  0
  -12.6603  -27.0845   16.3804 H   0  0  0  0  0  0  0  0  0  0  0  0
  -15.1157  -27.2151   16.2302 H   0  0  0  0  0  0  0  0  0  0  0  0
  -15.5258  -27.4198   17.8840 H   0  0  0  0  0  0  0  0  0  0  0  0
  1  2  2  0
  2  3  1  0
  3  4  1  0
  4  5  2  0
  5  6  1  0
  6  7  2  0
  7  8  1  0
  8  9  1  0
  9 10  2  0
 10 11  1  0
 11 12  2  0
  2 13  1  0
 13 14  1  0
 14 15  2  0
 15 16  1  0
 16 17  2  0
 17 18  1  0
 18 19  2  0
 13 20  1  0
 20 21  1  0
 12  4  1  0
 21 13  1  0
 11  7  1  0
 19 14  1  0
  3 22  1  0
  5 23  1  0
  6 24  1  0
  8 25  1  0
  9 26  1  0
 10 27  1  0
 12 28  1  0
 15 29  1  0
 16 30  1  0
 17 31  1  0
 18 32  1  0
 20 33  1  0
 20 34  1  0
 21 35  1  0
 21 36  1  0
M  END
>  <Energy>  (630) 
193.83465858254422

>  <compound_id>  (630) 
5620

>  <target_id>  (630) 
1

>  <reference_id>  (630) 
39

>  <inspiration_ids>  (630) 
[48, 39]

>  <energy_score>  (630) 
134.36326023698632

>  <distance_score>  (630) 
8.608224578135054

>  <path>  (630) 
/opt/xchem-fragalysis-2/maxwin/BulkDock/SCRATCH/511018/C5620-P39/C5620-P39.minimised.mol

>  <scratch_subdir>  (630) 
/opt/xchem-fragalysis-2/maxwin/BulkDock/SCRATCH/511018/C5620-P39

>  <fragmenstein_runtime>  (630) 
8.351324558258057

>  <fragmenstein_outcome>  (630) 
too moved

>  <fragmenstein_mode>  (630) 
expansion

>  <fragmenstein_error>  (630) 


$$$$
C5623-P48
     RDKit          3D

 37 40  0  0  0  0  0  0  0  0999 V2000
  -18.3799  -23.8626   25.0043 C   0  0  0  0  0  0  0  0  0  0  0  0
  -18.7118  -25.3438   24.9527 C   0  0  0  0  0  0  0  0  0  0  0  0
  -17.9387  -26.0370   23.9435 N   0  0  0  0  0  0  0  0  0  0  0  0
  -18.4199  -26.1002   22.6669 N   0  0  0  0  0  0  0  0  0  0  0  0
  -17.4055  -26.6609   21.9752 C   0  0  0  0  0  0  0  0  0  0  0  0
  -17.3262  -26.8071   20.4584 C   0  0  0  0  0  0  0  0  0  0  0  0
  -18.2630  -26.2173   19.6094 C   0  0  0  0  0  0  0  0  0  0  0  0
  -18.0729  -26.2496   18.2140 C   0  0  0  0  0  0  0  0  0  0  0  0
  -16.9556  -26.8732   17.6764 C   0  0  0  0  0  0  0  0  0  0  0  0
  -16.0746  -27.4499   18.5671 C   0  0  0  0  0  0  0  0  0  0  0  0
  -16.2359  -27.4326   19.9211 N   0  0  0  0  0  0  0  0  0  0  0  0
  -16.3427  -26.9575   22.8326 N   0  0  0  0  0  0  0  0  0  0  0  0
  -16.6852  -26.5796   24.0537 C   0  0  0  0  0  0  0  0  0  0  0  0
  -15.8401  -26.7265   25.2627 C   0  0  0  0  0  0  0  0  0  0  0  0
  -16.2686  -27.4612   26.3726 C   0  0  0  0  0  0  0  0  0  0  0  0
  -15.4180  -27.7398   27.4566 C   0  0  0  0  0  0  0  0  0  0  0  0
  -14.1006  -27.2753   27.3966 C   0  0  0  0  0  0  0  0  0  0  0  0
  -13.0746  -27.3966   28.3060 N   0  0  0  0  0  0  0  0  0  0  0  0
  -11.9756  -26.7155   27.8614 C   0  0  0  0  0  0  0  0  0  0  0  0
  -12.2813  -26.1687   26.6380 C   0  0  0  0  0  0  0  0  0  0  0  0
  -13.6214  -26.5283   26.3204 C   0  0  0  0  0  0  0  0  0  0  0  0
  -14.5140  -26.2453   25.2564 C   0  0  0  0  0  0  0  0  0  0  0  0
  -18.9623  -23.3687   25.7881 H   0  0  0  0  0  0  0  0  0  0  0  0
  -17.3174  -23.7020   25.2139 H   0  0  0  0  0  0  0  0  0  0  0  0
  -18.6075  -23.3744   24.0508 H   0  0  0  0  0  0  0  0  0  0  0  0
  -19.7720  -25.4917   24.7187 H   0  0  0  0  0  0  0  0  0  0  0  0
  -18.5231  -25.8141   25.9210 H   0  0  0  0  0  0  0  0  0  0  0  0
  -19.1162  -25.6891   20.0265 H   0  0  0  0  0  0  0  0  0  0  0  0
  -18.7989  -25.7687   17.5631 H   0  0  0  0  0  0  0  0  0  0  0  0
  -16.7819  -26.9070   16.6078 H   0  0  0  0  0  0  0  0  0  0  0  0
  -15.1783  -27.9568   18.2200 H   0  0  0  0  0  0  0  0  0  0  0  0
  -17.2740  -27.8811   26.3905 H   0  0  0  0  0  0  0  0  0  0  0  0
  -15.7765  -28.3244   28.3000 H   0  0  0  0  0  0  0  0  0  0  0  0
  -13.1392  -27.8872   29.1894 H   0  0  0  0  0  0  0  0  0  0  0  0
  -11.0808  -26.6606   28.4660 H   0  0  0  0  0  0  0  0  0  0  0  0
  -11.6081  -25.5437   26.0697 H   0  0  0  0  0  0  0  0  0  0  0  0
  -14.1860  -25.6442   24.4143 H   0  0  0  0  0  0  0  0  0  0  0  0
  1  2  1  0
  2  3  1  0
  3  4  1  0
  4  5  2  0
  5  6  1  0
  6  7  2  0
  7  8  1  0
  8  9  2  0
  9 10  1  0
 10 11  2  0
  5 12  1  0
 12 13  2  0
 13 14  1  0
 14 15  2  0
 15 16  1  0
 16 17  2  0
 17 18  1  0
 18 19  1  0
 19 20  2  0
 20 21  1  0
 21 22  2  0
 13  3  1  0
 22 14  1  0
 11  6  1  0
 21 17  1  0
  1 23  1  0
  1 24  1  0
  1 25  1  0
  2 26  1  0
  2 27  1  0
  7 28  1  0
  8 29  1  0
  9 30  1  0
 10 31  1  0
 15 32  1  0
 16 33  1  0
 18 34  1  0
 19 35  1  0
 20 36  1  0
 22 37  1  0
M  END
>  <Energy>  (631) 
92.3797541918196

>  <compound_id>  (631) 
5623

>  <target_id>  (631) 
1

>  <reference_id>  (631) 
48

>  <inspiration_ids>  (631) 
[48, 39]

>  <energy_score>  (631) 
-16.106733193921286

>  <distance_score>  (631) 
9.258474902254704

>  <path>  (631) 
/opt/xchem-fragalysis-2/maxwin/BulkDock/SCRATCH/511018/C5623-P48/C5623-P48.minimised.mol

>  <scratch_subdir>  (631) 
/opt/xchem-fragalysis-2/maxwin/BulkDock/SCRATCH/511018/C5623-P48

>  <fragmenstein_runtime>  (631) 
5.316860914230347

>  <fragmenstein_outcome>  (631) 
too moved

>  <fragmenstein_mode>  (631) 
expansion

>  <fragmenstein_error>  (631) 


$$$$
C5623-P39
     RDKit          3D

 37 40  0  0  0  0  0  0  0  0999 V2000
  -18.5215  -22.4793   24.0503 C   0  0  0  0  0  0  0  0  0  0  0  0
  -18.2350  -23.7943   24.7619 C   0  0  0  0  0  0  0  0  0  0  0  0
  -18.0590  -24.9324   23.8867 N   0  0  0  0  0  0  0  0  0  0  0  0
  -18.8495  -25.0444   22.7995 N   0  0  0  0  0  0  0  0  0  0  0  0
  -18.3722  -26.1343   22.1763 C   0  0  0  0  0  0  0  0  0  0  0  0
  -18.7817  -26.5341   20.7775 C   0  0  0  0  0  0  0  0  0  0  0  0
  -18.6203  -27.8346   20.3170 C   0  0  0  0  0  0  0  0  0  0  0  0
  -18.7827  -28.1277   18.9506 C   0  0  0  0  0  0  0  0  0  0  0  0
  -19.1635  -27.1265   18.0698 C   0  0  0  0  0  0  0  0  0  0  0  0
  -19.4072  -25.8785   18.6082 C   0  0  0  0  0  0  0  0  0  0  0  0
  -19.2221  -25.5609   19.9226 N   0  0  0  0  0  0  0  0  0  0  0  0
  -17.3647  -26.7636   22.9409 N   0  0  0  0  0  0  0  0  0  0  0  0
  -17.1277  -25.9435   23.9627 C   0  0  0  0  0  0  0  0  0  0  0  0
  -16.0398  -26.0299   24.9630 C   0  0  0  0  0  0  0  0  0  0  0  0
  -16.0941  -26.9770   25.9866 C   0  0  0  0  0  0  0  0  0  0  0  0
  -15.0655  -27.1010   26.9353 C   0  0  0  0  0  0  0  0  0  0  0  0
  -13.9672  -26.2346   26.8455 C   0  0  0  0  0  0  0  0  0  0  0  0
  -12.8200  -26.1416   27.6062 N   0  0  0  0  0  0  0  0  0  0  0  0
  -12.0258  -25.1251   27.1480 C   0  0  0  0  0  0  0  0  0  0  0  0
  -12.6515  -24.5661   26.0598 C   0  0  0  0  0  0  0  0  0  0  0  0
  -13.8704  -25.2726   25.8465 C   0  0  0  0  0  0  0  0  0  0  0  0
  -14.9189  -25.1747   24.9018 C   0  0  0  0  0  0  0  0  0  0  0  0
  -18.5772  -21.6630   24.7774 H   0  0  0  0  0  0  0  0  0  0  0  0
  -17.7331  -22.2403   23.3292 H   0  0  0  0  0  0  0  0  0  0  0  0
  -19.4737  -22.5138   23.5111 H   0  0  0  0  0  0  0  0  0  0  0  0
  -17.3122  -23.6769   25.3232 H   0  0  0  0  0  0  0  0  0  0  0  0
  -19.0470  -24.0455   25.4515 H   0  0  0  0  0  0  0  0  0  0  0  0
  -18.3464  -28.6175   21.0167 H   0  0  0  0  0  0  0  0  0  0  0  0
  -18.6218  -29.1404   18.5907 H   0  0  0  0  0  0  0  0  0  0  0  0
  -19.3069  -27.3206   17.0137 H   0  0  0  0  0  0  0  0  0  0  0  0
  -19.7500  -25.0560   17.9858 H   0  0  0  0  0  0  0  0  0  0  0  0
  -16.9412  -27.6599   26.0402 H   0  0  0  0  0  0  0  0  0  0  0  0
  -15.1181  -27.8796   27.6899 H   0  0  0  0  0  0  0  0  0  0  0  0
  -12.5964  -26.7315   28.3960 H   0  0  0  0  0  0  0  0  0  0  0  0
  -11.0881  -24.8895   27.6339 H   0  0  0  0  0  0  0  0  0  0  0  0
  -12.2796  -23.7281   25.4822 H   0  0  0  0  0  0  0  0  0  0  0  0
  -14.8288  -24.4281   24.1206 H   0  0  0  0  0  0  0  0  0  0  0  0
  1  2  1  0
  2  3  1  0
  3  4  1  0
  4  5  2  0
  5  6  1  0
  6  7  2  0
  7  8  1  0
  8  9  2  0
  9 10  1  0
 10 11  2  0
  5 12  1  0
 12 13  2  0
 13 14  1  0
 14 15  2  0
 15 16  1  0
 16 17  2  0
 17 18  1  0
 18 19  1  0
 19 20  2  0
 20 21  1  0
 21 22  2  0
 13  3  1  0
 22 14  1  0
 11  6  1  0
 21 17  1  0
  1 23  1  0
  1 24  1  0
  1 25  1  0
  2 26  1  0
  2 27  1  0
  7 28  1  0
  8 29  1  0
  9 30  1  0
 10 31  1  0
 15 32  1  0
 16 33  1  0
 18 34  1  0
 19 35  1  0
 20 36  1  0
 22 37  1  0
M  END
>  <Energy>  (632) 
94.096446633748911

>  <compound_id>  (632) 
5623

>  <target_id>  (632) 
1

>  <reference_id>  (632) 
39

>  <inspiration_ids>  (632) 
[48, 39]

>  <energy_score>  (632) 
-14.390040751992217

>  <distance_score>  (632) 
9.728524297036442

>  <path>  (632) 
/opt/xchem-fragalysis-2/maxwin/BulkDock/SCRATCH/511018/C5623-P39/C5623-P39.minimised.mol

>  <scratch_subdir>  (632) 
/opt/xchem-fragalysis-2/maxwin/BulkDock/SCRATCH/511018/C5623-P39

>  <fragmenstein_runtime>  (632) 
9.187258958816528

>  <fragmenstein_outcome>  (632) 
too moved

>  <fragmenstein_mode>  (632) 
expansion

>  <fragmenstein_error>  (632) 


$$$$
C5624-P48
     RDKit          3D

 53 55  0  0  0  0  0  0  0  0999 V2000
  -16.2184  -25.0381   16.0488 C   0  0  0  0  0  0  0  0  0  0  0  0
  -16.0651  -26.5571   16.1378 C   0  0  0  0  0  0  0  0  0  0  0  0
  -17.4201  -27.2301   15.9050 C   0  0  0  0  0  0  0  0  0  0  0  0
  -15.0300  -27.1087   15.1344 C   0  0  0  0  0  0  0  0  0  0  0  0
  -13.6161  -26.5172   15.2735 C   0  0  0  0  0  0  0  0  0  0  0  0
  -12.5840  -27.1435   14.3364 C   0  0  0  0  0  0  0  0  0  0  0  0
  -13.1269  -26.3914   16.6105 O   0  0  0  0  0  0  0  0  0  0  0  0
  -12.9266  -27.5091   17.3906 C   0  0  0  0  0  0  0  0  0  0  0  0
  -12.2562  -27.2720   18.5908 C   0  0  0  0  0  0  0  0  0  0  0  0
  -11.9934  -28.2917   19.6034 C   0  0  0  0  0  0  0  0  0  0  0  0
  -10.6337  -28.0469   21.1424 C   0  0  0  0  0  0  0  0  0  0  0  0
  -10.2759  -27.1338   22.7429 N   0  0  0  0  0  0  0  0  0  0  0  0
  -10.9913  -27.3033   24.5390 C   0  0  0  0  0  0  0  0  0  0  0  0
  -11.7351  -28.0831   24.9475 O   0  0  0  0  0  0  0  0  0  0  0  0
  -10.4779  -26.0108   25.5122 N   0  0  0  0  0  0  0  0  0  0  0  0
  -10.8684  -25.6089   26.7976 C   0  0  0  0  0  0  0  0  0  0  0  0
  -11.3315  -26.6178   27.6614 C   0  0  0  0  0  0  0  0  0  0  0  0
  -11.7621  -26.3640   28.9657 C   0  0  0  0  0  0  0  0  0  0  0  0
  -11.7613  -25.0358   29.3654 C   0  0  0  0  0  0  0  0  0  0  0  0
  -12.1271  -24.4729   30.5641 N   0  0  0  0  0  0  0  0  0  0  0  0
  -12.0523  -23.1107   30.4819 C   0  0  0  0  0  0  0  0  0  0  0  0
  -11.6081  -22.7894   29.2157 C   0  0  0  0  0  0  0  0  0  0  0  0
  -11.3889  -24.0003   28.5118 C   0  0  0  0  0  0  0  0  0  0  0  0
  -10.9459  -24.3012   27.2109 C   0  0  0  0  0  0  0  0  0  0  0  0
  -12.4387  -29.5737   19.1619 C   0  0  0  0  0  0  0  0  0  0  0  0
  -13.1236  -29.7071   17.9285 C   0  0  0  0  0  0  0  0  0  0  0  0
  -13.3731  -28.7150   17.0377 N   0  0  0  0  0  0  0  0  0  0  0  0
  -16.4780  -24.7234   15.0325 H   0  0  0  0  0  0  0  0  0  0  0  0
  -15.2950  -24.5283   16.3394 H   0  0  0  0  0  0  0  0  0  0  0  0
  -17.0065  -24.6863   16.7236 H   0  0  0  0  0  0  0  0  0  0  0  0
  -15.7472  -26.8061   17.1572 H   0  0  0  0  0  0  0  0  0  0  0  0
  -18.1577  -26.8831   16.6365 H   0  0  0  0  0  0  0  0  0  0  0  0
  -17.8066  -27.0107   14.9039 H   0  0  0  0  0  0  0  0  0  0  0  0
  -17.3369  -28.3173   16.0067 H   0  0  0  0  0  0  0  0  0  0  0  0
  -15.3819  -26.9262   14.1099 H   0  0  0  0  0  0  0  0  0  0  0  0
  -14.9909  -28.1993   15.2369 H   0  0  0  0  0  0  0  0  0  0  0  0
  -13.6967  -25.4775   14.9308 H   0  0  0  0  0  0  0  0  0  0  0  0
  -12.8977  -27.0538   13.2917 H   0  0  0  0  0  0  0  0  0  0  0  0
  -11.6115  -26.6539   14.4551 H   0  0  0  0  0  0  0  0  0  0  0  0
  -12.4358  -28.2054   14.5554 H   0  0  0  0  0  0  0  0  0  0  0  0
  -11.9082  -26.2638   18.7077 H   0  0  0  0  0  0  0  0  0  0  0  0
  -10.2781  -27.1445   20.6604 H   0  0  0  0  0  0  0  0  0  0  0  0
  -10.3122  -29.0609   21.4776 H   0  0  0  0  0  0  0  0  0  0  0  0
   -9.6317  -26.4682   22.6807 H   0  0  0  0  0  0  0  0  0  0  0  0
   -9.9009  -25.3921   24.9533 H   0  0  0  0  0  0  0  0  0  0  0  0
  -11.3166  -27.6584   27.3428 H   0  0  0  0  0  0  0  0  0  0  0  0
  -12.0751  -27.1673   29.6236 H   0  0  0  0  0  0  0  0  0  0  0  0
  -12.4525  -24.9883   31.3697 H   0  0  0  0  0  0  0  0  0  0  0  0
  -12.3441  -22.4867   31.3150 H   0  0  0  0  0  0  0  0  0  0  0  0
  -11.4775  -21.7890   28.8313 H   0  0  0  0  0  0  0  0  0  0  0  0
  -10.7773  -23.5059   26.5206 H   0  0  0  0  0  0  0  0  0  0  0  0
  -12.2169  -30.4817   19.7188 H   0  0  0  0  0  0  0  0  0  0  0  0
  -13.4682  -30.6893   17.6106 H   0  0  0  0  0  0  0  0  0  0  0  0
  1  2  1  0
  2  3  1  0
  2  4  1  0
  4  5  1  0
  5  6  1  0
  5  7  1  0
  7  8  1  0
  8  9  2  0
  9 10  1  0
 10 11  1  0
 11 12  1  0
 12 13  1  0
 13 14  2  0
 13 15  1  0
 15 16  1  0
 16 17  2  0
 17 18  1  0
 18 19  2  0
 19 20  1  0
 20 21  1  0
 21 22  2  0
 22 23  1  0
 23 24  2  0
 10 25  2  0
 25 26  1  0
 26 27  2  0
 27  8  1  0
 24 16  1  0
 23 19  1  0
  1 28  1  0
  1 29  1  0
  1 30  1  0
  2 31  1  0
  3 32  1  0
  3 33  1  0
  3 34  1  0
  4 35  1  0
  4 36  1  0
  5 37  1  0
  6 38  1  0
  6 39  1  0
  6 40  1  0
  9 41  1  0
 11 42  1  0
 11 43  1  0
 12 44  1  0
 15 45  1  0
 17 46  1  0
 18 47  1  0
 20 48  1  0
 21 49  1  0
 22 50  1  0
 24 51  1  0
 25 52  1  0
 26 53  1  0
M  END
>  <Energy>  (633) 
266.84975806717193

>  <compound_id>  (633) 
5624

>  <target_id>  (633) 
1

>  <reference_id>  (633) 
48

>  <inspiration_ids>  (633) 
[48, 39]

>  <energy_score>  (633) 
278.9075300270839

>  <distance_score>  (633) 
6.926800089107576

>  <path>  (633) 
/opt/xchem-fragalysis-2/maxwin/BulkDock/SCRATCH/511018/C5624-P48/C5624-P48.minimised.mol

>  <scratch_subdir>  (633) 
/opt/xchem-fragalysis-2/maxwin/BulkDock/SCRATCH/511018/C5624-P48

>  <fragmenstein_runtime>  (633) 
15.15984058380127

>  <fragmenstein_outcome>  (633) 
too moved

>  <fragmenstein_mode>  (633) 
expansion

>  <fragmenstein_error>  (633) 


$$$$
C5624-P39
     RDKit          3D

 53 55  0  0  0  0  0  0  0  0999 V2000
  -10.0760  -37.7358   19.9067 C   0  0  0  0  0  0  0  0  0  0  0  0
   -9.5456  -36.5522   19.0904 C   0  0  0  0  0  0  0  0  0  0  0  0
   -9.8879  -36.7783   17.6152 C   0  0  0  0  0  0  0  0  0  0  0  0
  -10.1382  -35.2320   19.6225 C   0  0  0  0  0  0  0  0  0  0  0  0
   -9.1653  -34.0322   19.6265 C   0  0  0  0  0  0  0  0  0  0  0  0
   -8.7004  -33.6451   18.2122 C   0  0  0  0  0  0  0  0  0  0  0  0
   -9.9018  -32.9481   20.2444 O   0  0  0  0  0  0  0  0  0  0  0  0
   -9.1544  -32.1830   21.1249 C   0  0  0  0  0  0  0  0  0  0  0  0
   -9.8243  -31.4708   22.1200 C   0  0  0  0  0  0  0  0  0  0  0  0
   -9.0986  -30.6811   23.0528 C   0  0  0  0  0  0  0  0  0  0  0  0
   -9.7169  -30.3534   24.4210 C   0  0  0  0  0  0  0  0  0  0  0  0
   -9.6892  -29.0712   25.1993 N   0  0  0  0  0  0  0  0  0  0  0  0
  -10.5527  -27.7334   25.0400 C   0  0  0  0  0  0  0  0  0  0  0  0
  -11.3364  -27.4666   24.2109 O   0  0  0  0  0  0  0  0  0  0  0  0
  -10.1706  -26.9942   26.2607 N   0  0  0  0  0  0  0  0  0  0  0  0
  -10.6991  -25.8172   26.8265 C   0  0  0  0  0  0  0  0  0  0  0  0
  -11.0816  -26.0214   28.1364 C   0  0  0  0  0  0  0  0  0  0  0  0
  -12.4491  -26.1262   28.3584 C   0  0  0  0  0  0  0  0  0  0  0  0
  -13.3202  -25.8253   27.2953 C   0  0  0  0  0  0  0  0  0  0  0  0
  -14.6330  -26.1458   27.0295 N   0  0  0  0  0  0  0  0  0  0  0  0
  -15.0675  -25.5168   25.8963 C   0  0  0  0  0  0  0  0  0  0  0  0
  -13.9978  -24.8378   25.3716 C   0  0  0  0  0  0  0  0  0  0  0  0
  -12.8657  -25.1588   26.1619 C   0  0  0  0  0  0  0  0  0  0  0  0
  -11.4852  -25.0287   25.9886 C   0  0  0  0  0  0  0  0  0  0  0  0
   -7.7316  -30.5668   22.8142 C   0  0  0  0  0  0  0  0  0  0  0  0
   -7.1570  -31.2684   21.7566 C   0  0  0  0  0  0  0  0  0  0  0  0
   -7.8231  -32.1348   20.9683 N   0  0  0  0  0  0  0  0  0  0  0  0
   -9.7960  -37.6367   20.9610 H   0  0  0  0  0  0  0  0  0  0  0  0
   -9.6589  -38.6801   19.5410 H   0  0  0  0  0  0  0  0  0  0  0  0
  -11.1680  -37.8015   19.8494 H   0  0  0  0  0  0  0  0  0  0  0  0
   -8.4545  -36.5383   19.2009 H   0  0  0  0  0  0  0  0  0  0  0  0
   -9.5057  -35.9768   16.9790 H   0  0  0  0  0  0  0  0  0  0  0  0
   -9.4495  -37.7165   17.2575 H   0  0  0  0  0  0  0  0  0  0  0  0
  -10.9715  -36.8372   17.4644 H   0  0  0  0  0  0  0  0  0  0  0  0
  -10.4708  -35.3705   20.6609 H   0  0  0  0  0  0  0  0  0  0  0  0
  -11.0505  -34.9663   19.0718 H   0  0  0  0  0  0  0  0  0  0  0  0
   -8.2981  -34.3258   20.2328 H   0  0  0  0  0  0  0  0  0  0  0  0
   -8.0427  -34.4190   17.8043 H   0  0  0  0  0  0  0  0  0  0  0  0
   -9.5460  -33.5320   17.5278 H   0  0  0  0  0  0  0  0  0  0  0  0
   -8.1279  -32.7177   18.2126 H   0  0  0  0  0  0  0  0  0  0  0  0
  -10.8917  -31.6268   22.2344 H   0  0  0  0  0  0  0  0  0  0  0  0
   -9.1866  -31.0361   25.1030 H   0  0  0  0  0  0  0  0  0  0  0  0
  -10.7356  -30.7462   24.4644 H   0  0  0  0  0  0  0  0  0  0  0  0
   -9.0529  -28.9657   25.9538 H   0  0  0  0  0  0  0  0  0  0  0  0
   -9.4147  -27.4593   26.7010 H   0  0  0  0  0  0  0  0  0  0  0  0
  -10.4083  -26.4694   28.8631 H   0  0  0  0  0  0  0  0  0  0  0  0
  -12.7608  -26.5906   29.2789 H   0  0  0  0  0  0  0  0  0  0  0  0
  -15.1931  -26.8114   27.5393 H   0  0  0  0  0  0  0  0  0  0  0  0
  -16.0940  -25.6049   25.5659 H   0  0  0  0  0  0  0  0  0  0  0  0
  -14.0221  -24.2377   24.4745 H   0  0  0  0  0  0  0  0  0  0  0  0
  -11.0993  -24.6894   25.0359 H   0  0  0  0  0  0  0  0  0  0  0  0
   -7.0790  -30.0501   23.5085 H   0  0  0  0  0  0  0  0  0  0  0  0
   -6.0900  -31.2030   21.5613 H   0  0  0  0  0  0  0  0  0  0  0  0
  1  2  1  0
  2  3  1  0
  2  4  1  0
  4  5  1  0
  5  6  1  0
  5  7  1  0
  7  8  1  0
  8  9  2  0
  9 10  1  0
 10 11  1  0
 11 12  1  0
 12 13  1  0
 13 14  2  0
 13 15  1  0
 15 16  1  0
 16 17  2  0
 17 18  1  0
 18 19  2  0
 19 20  1  0
 20 21  1  0
 21 22  2  0
 22 23  1  0
 23 24  2  0
 10 25  2  0
 25 26  1  0
 26 27  2  0
 27  8  1  0
 24 16  1  0
 23 19  1  0
  1 28  1  0
  1 29  1  0
  1 30  1  0
  2 31  1  0
  3 32  1  0
  3 33  1  0
  3 34  1  0
  4 35  1  0
  4 36  1  0
  5 37  1  0
  6 38  1  0
  6 39  1  0
  6 40  1  0
  9 41  1  0
 11 42  1  0
 11 43  1  0
 12 44  1  0
 15 45  1  0
 17 46  1  0
 18 47  1  0
 20 48  1  0
 21 49  1  0
 22 50  1  0
 24 51  1  0
 25 52  1  0
 26 53  1  0
M  END
>  <Energy>  (634) 
43.405271241903897

>  <compound_id>  (634) 
5624

>  <target_id>  (634) 
1

>  <reference_id>  (634) 
39

>  <inspiration_ids>  (634) 
[48, 39]

>  <energy_score>  (634) 
55.46304320181602

>  <distance_score>  (634) 
10.461100331131755

>  <path>  (634) 
/opt/xchem-fragalysis-2/maxwin/BulkDock/SCRATCH/511018/C5624-P39/C5624-P39.minimised.mol

>  <scratch_subdir>  (634) 
/opt/xchem-fragalysis-2/maxwin/BulkDock/SCRATCH/511018/C5624-P39

>  <fragmenstein_runtime>  (634) 
25.455186128616333

>  <fragmenstein_outcome>  (634) 
too moved

>  <fragmenstein_mode>  (634) 
expansion

>  <fragmenstein_error>  (634) 


$$$$
C5625-P48
     RDKit          3D

 46 49  0  0  0  0  0  0  0  0999 V2000
  -11.8470  -26.7336   16.0461 C   0  0  0  0  0  0  0  0  0  0  0  0
  -11.3524  -27.2912   17.2329 C   0  0  0  0  0  0  0  0  0  0  0  0
  -12.1309  -27.2934   18.4092 C   0  0  0  0  0  0  0  0  0  0  0  0
  -11.7912  -28.1411   19.8992 C   0  0  0  0  0  0  0  0  0  0  0  0
  -10.6212  -27.9277   21.7655 C   0  0  0  0  0  0  0  0  0  0  0  0
  -10.7326  -27.2871   23.8185 N   0  0  0  0  0  0  0  0  0  0  0  0
  -10.3472  -27.9363   25.3242 C   0  0  0  0  0  0  0  0  0  0  0  0
  -10.7185  -27.9608   27.0129 C   0  0  0  0  0  0  0  0  0  0  0  0
  -12.1282  -27.6010   27.4188 C   0  0  0  0  0  0  0  0  0  0  0  0
  -12.0777  -26.6944   28.6453 C   0  0  0  0  0  0  0  0  0  0  0  0
  -11.9623  -25.2982   28.5489 C   0  0  0  0  0  0  0  0  0  0  0  0
  -11.8136  -24.4893   29.6748 C   0  0  0  0  0  0  0  0  0  0  0  0
  -11.7659  -25.1180   30.9133 C   0  0  0  0  0  0  0  0  0  0  0  0
  -11.6295  -24.5814   32.1698 N   0  0  0  0  0  0  0  0  0  0  0  0
  -11.5855  -25.5818   33.1009 C   0  0  0  0  0  0  0  0  0  0  0  0
  -11.7283  -26.7809   32.4426 C   0  0  0  0  0  0  0  0  0  0  0  0
  -11.8531  -26.4990   31.0589 C   0  0  0  0  0  0  0  0  0  0  0  0
  -12.0180  -27.2966   29.9137 C   0  0  0  0  0  0  0  0  0  0  0  0
  -12.7707  -26.9747   26.2210 C   0  0  0  0  0  0  0  0  0  0  0  0
  -11.7504  -26.2957   25.1911 C   0  0  0  0  0  0  0  0  0  0  0  0
  -13.4206  -26.7335   18.2596 C   0  0  0  0  0  0  0  0  0  0  0  0
  -13.8327  -26.2118   17.0287 C   0  0  0  0  0  0  0  0  0  0  0  0
  -13.0734  -26.1960   15.9169 N   0  0  0  0  0  0  0  0  0  0  0  0
  -11.2323  -26.7125   15.1493 H   0  0  0  0  0  0  0  0  0  0  0  0
  -10.3515  -27.6822   17.1656 H   0  0  0  0  0  0  0  0  0  0  0  0
  -11.6545  -29.2009   19.5202 H   0  0  0  0  0  0  0  0  0  0  0  0
  -12.8794  -28.2513   19.9960 H   0  0  0  0  0  0  0  0  0  0  0  0
  -10.5222  -29.2354   21.7277 H   0  0  0  0  0  0  0  0  0  0  0  0
   -9.7143  -28.5014   21.5949 H   0  0  0  0  0  0  0  0  0  0  0  0
   -9.9922  -26.9519   25.4840 H   0  0  0  0  0  0  0  0  0  0  0  0
  -11.3823  -28.2373   25.2849 H   0  0  0  0  0  0  0  0  0  0  0  0
  -10.4048  -28.9175   27.4491 H   0  0  0  0  0  0  0  0  0  0  0  0
  -10.1265  -27.2246   27.5207 H   0  0  0  0  0  0  0  0  0  0  0  0
  -12.6955  -28.5037   27.6791 H   0  0  0  0  0  0  0  0  0  0  0  0
  -11.9676  -24.7870   27.5907 H   0  0  0  0  0  0  0  0  0  0  0  0
  -11.7433  -23.4104   29.5776 H   0  0  0  0  0  0  0  0  0  0  0  0
  -11.5514  -23.5940   32.3719 H   0  0  0  0  0  0  0  0  0  0  0  0
  -11.4615  -25.3551   34.1515 H   0  0  0  0  0  0  0  0  0  0  0  0
  -11.7404  -27.7568   32.9098 H   0  0  0  0  0  0  0  0  0  0  0  0
  -12.0690  -28.3767   30.0224 H   0  0  0  0  0  0  0  0  0  0  0  0
  -13.3743  -27.7064   25.6784 H   0  0  0  0  0  0  0  0  0  0  0  0
  -13.5181  -26.2368   26.5384 H   0  0  0  0  0  0  0  0  0  0  0  0
  -12.6552  -25.7409   24.8599 H   0  0  0  0  0  0  0  0  0  0  0  0
  -11.0671  -25.5568   25.6507 H   0  0  0  0  0  0  0  0  0  0  0  0
  -14.1194  -26.7103   19.0886 H   0  0  0  0  0  0  0  0  0  0  0  0
  -14.8250  -25.7833   16.9142 H   0  0  0  0  0  0  0  0  0  0  0  0
  1  2  2  0
  2  3  1  0
  3  4  1  0
  4  5  1  0
  5  6  1  0
  6  7  1  0
  7  8  1  0
  8  9  1  0
  9 10  1  0
 10 11  2  0
 11 12  1  0
 12 13  2  0
 13 14  1  0
 14 15  1  0
 15 16  2  0
 16 17  1  0
 17 18  2  0
  9 19  1  0
 19 20  1  0
  3 21  2  0
 21 22  1  0
 22 23  2  0
 23  1  1  0
 20  6  1  0
 18 10  1  0
 17 13  1  0
  1 24  1  0
  2 25  1  0
  4 26  1  0
  4 27  1  0
  5 28  1  0
  5 29  1  0
  7 30  1  0
  7 31  1  0
  8 32  1  0
  8 33  1  0
  9 34  1  0
 11 35  1  0
 12 36  1  0
 14 37  1  0
 15 38  1  0
 16 39  1  0
 18 40  1  0
 19 41  1  0
 19 42  1  0
 20 43  1  0
 20 44  1  0
 21 45  1  0
 22 46  1  0
M  END
>  <Energy>  (635) 
785.08624746035298

>  <compound_id>  (635) 
5625

>  <target_id>  (635) 
1

>  <reference_id>  (635) 
48

>  <inspiration_ids>  (635) 
[48, 39]

>  <energy_score>  (635) 
700.1830474802946

>  <distance_score>  (635) 
6.556441398512203

>  <path>  (635) 
/opt/xchem-fragalysis-2/maxwin/BulkDock/SCRATCH/511018/C5625-P48/C5625-P48.minimised.mol

>  <scratch_subdir>  (635) 
/opt/xchem-fragalysis-2/maxwin/BulkDock/SCRATCH/511018/C5625-P48

>  <fragmenstein_runtime>  (635) 
5.550055503845215

>  <fragmenstein_outcome>  (635) 
too moved

>  <fragmenstein_mode>  (635) 
expansion

>  <fragmenstein_error>  (635) 


$$$$
C5625-P39
     RDKit          3D

 46 49  0  0  0  0  0  0  0  0999 V2000
  -14.7775  -25.0542   15.3531 C   0  0  0  0  0  0  0  0  0  0  0  0
  -14.8034  -24.7997   16.7321 C   0  0  0  0  0  0  0  0  0  0  0  0
  -13.9860  -25.5203   17.6228 C   0  0  0  0  0  0  0  0  0  0  0  0
  -13.8116  -25.2608   19.3015 C   0  0  0  0  0  0  0  0  0  0  0  0
  -14.5903  -25.5114   21.0241 C   0  0  0  0  0  0  0  0  0  0  0  0
  -14.4877  -25.4520   22.9186 N   0  0  0  0  0  0  0  0  0  0  0  0
  -15.3411  -26.2708   23.7762 C   0  0  0  0  0  0  0  0  0  0  0  0
  -14.5145  -26.5463   25.0929 C   0  0  0  0  0  0  0  0  0  0  0  0
  -14.2002  -25.3156   25.9320 C   0  0  0  0  0  0  0  0  0  0  0  0
  -13.2764  -25.3889   27.1602 C   0  0  0  0  0  0  0  0  0  0  0  0
  -13.7184  -24.7285   28.3080 C   0  0  0  0  0  0  0  0  0  0  0  0
  -12.9577  -24.3795   29.4096 C   0  0  0  0  0  0  0  0  0  0  0  0
  -11.7084  -24.9284   29.4216 C   0  0  0  0  0  0  0  0  0  0  0  0
  -10.8255  -24.9378   30.4584 N   0  0  0  0  0  0  0  0  0  0  0  0
   -9.6976  -25.5787   30.0671 C   0  0  0  0  0  0  0  0  0  0  0  0
   -9.8626  -25.9868   28.7621 C   0  0  0  0  0  0  0  0  0  0  0  0
  -11.1742  -25.6444   28.3535 C   0  0  0  0  0  0  0  0  0  0  0  0
  -11.9561  -25.8493   27.1832 C   0  0  0  0  0  0  0  0  0  0  0  0
  -13.6388  -24.2213   25.0397 C   0  0  0  0  0  0  0  0  0  0  0  0
  -14.3581  -24.1104   23.6804 C   0  0  0  0  0  0  0  0  0  0  0  0
  -13.1466  -26.4702   16.9790 C   0  0  0  0  0  0  0  0  0  0  0  0
  -13.1722  -26.6438   15.5919 C   0  0  0  0  0  0  0  0  0  0  0  0
  -13.9776  -25.9579   14.7621 N   0  0  0  0  0  0  0  0  0  0  0  0
  -15.4206  -24.4957   14.6781 H   0  0  0  0  0  0  0  0  0  0  0  0
  -15.4881  -24.0295   17.0509 H   0  0  0  0  0  0  0  0  0  0  0  0
  -12.9012  -24.6961   19.4580 H   0  0  0  0  0  0  0  0  0  0  0  0
  -13.7664  -26.2963   19.2530 H   0  0  0  0  0  0  0  0  0  0  0  0
  -14.5160  -26.5357   21.0504 H   0  0  0  0  0  0  0  0  0  0  0  0
  -14.0230  -24.6180   21.1208 H   0  0  0  0  0  0  0  0  0  0  0  0
  -16.2946  -25.7838   24.0120 H   0  0  0  0  0  0  0  0  0  0  0  0
  -15.5840  -27.1969   23.2890 H   0  0  0  0  0  0  0  0  0  0  0  0
  -15.0460  -27.2778   25.7108 H   0  0  0  0  0  0  0  0  0  0  0  0
  -13.5522  -26.9512   24.7883 H   0  0  0  0  0  0  0  0  0  0  0  0
  -15.1943  -25.0049   26.2742 H   0  0  0  0  0  0  0  0  0  0  0  0
  -14.7666  -24.5154   28.3988 H   0  0  0  0  0  0  0  0  0  0  0  0
  -13.3741  -23.8570   30.2634 H   0  0  0  0  0  0  0  0  0  0  0  0
  -10.9965  -24.5433   31.3744 H   0  0  0  0  0  0  0  0  0  0  0  0
   -8.8948  -25.6690   30.7801 H   0  0  0  0  0  0  0  0  0  0  0  0
   -9.1281  -26.5204   28.1805 H   0  0  0  0  0  0  0  0  0  0  0  0
  -11.5238  -26.3503   26.3229 H   0  0  0  0  0  0  0  0  0  0  0  0
  -13.7606  -23.2694   25.5256 H   0  0  0  0  0  0  0  0  0  0  0  0
  -12.5503  -24.3033   24.9740 H   0  0  0  0  0  0  0  0  0  0  0  0
  -15.3336  -23.7099   23.9848 H   0  0  0  0  0  0  0  0  0  0  0  0
  -13.8740  -23.3354   23.0768 H   0  0  0  0  0  0  0  0  0  0  0  0
  -12.4329  -27.0618   17.5406 H   0  0  0  0  0  0  0  0  0  0  0  0
  -12.5112  -27.3600   15.1110 H   0  0  0  0  0  0  0  0  0  0  0  0
  1  2  2  0
  2  3  1  0
  3  4  1  0
  4  5  1  0
  5  6  1  0
  6  7  1  0
  7  8  1  0
  8  9  1  0
  9 10  1  0
 10 11  2  0
 11 12  1  0
 12 13  2  0
 13 14  1  0
 14 15  1  0
 15 16  2  0
 16 17  1  0
 17 18  2  0
  9 19  1  0
 19 20  1  0
  3 21  2  0
 21 22  1  0
 22 23  2  0
 23  1  1  0
 20  6  1  0
 18 10  1  0
 17 13  1  0
  1 24  1  0
  2 25  1  0
  4 26  1  0
  4 27  1  0
  5 28  1  0
  5 29  1  0
  7 30  1  0
  7 31  1  0
  8 32  1  0
  8 33  1  0
  9 34  1  0
 11 35  1  0
 12 36  1  0
 14 37  1  0
 15 38  1  0
 16 39  1  0
 18 40  1  0
 19 41  1  0
 19 42  1  0
 20 43  1  0
 20 44  1  0
 21 45  1  0
 22 46  1  0
M  END
>  <Energy>  (636) 
287.66838765625999

>  <compound_id>  (636) 
5625

>  <target_id>  (636) 
1

>  <reference_id>  (636) 
39

>  <inspiration_ids>  (636) 
[48, 39]

>  <energy_score>  (636) 
202.76518767620064

>  <distance_score>  (636) 
6.188172867488097

>  <path>  (636) 
/opt/xchem-fragalysis-2/maxwin/BulkDock/SCRATCH/511018/C5625-P39/C5625-P39.minimised.mol

>  <scratch_subdir>  (636) 
/opt/xchem-fragalysis-2/maxwin/BulkDock/SCRATCH/511018/C5625-P39

>  <fragmenstein_runtime>  (636) 
8.58094048500061

>  <fragmenstein_outcome>  (636) 
too moved

>  <fragmenstein_mode>  (636) 
expansion

>  <fragmenstein_error>  (636) 


$$$$
C5627-P48
     RDKit          3D

 40 42  0  0  0  0  0  0  0  0999 V2000
   -6.6982  -20.8518   12.9023 C   0  0  0  0  0  0  0  0  0  0  0  0
   -8.2171  -20.9506   13.0187 C   0  0  0  0  0  0  0  0  0  0  0  0
   -8.6789  -20.1572   14.2048 C   0  0  0  0  0  0  0  0  0  0  0  0
   -9.0752  -18.8386   14.0793 C   0  0  0  0  0  0  0  0  0  0  0  0
   -9.2389  -18.1064   15.2433 C   0  0  0  0  0  0  0  0  0  0  0  0
   -9.0456  -18.5801   16.5059 N   0  0  0  0  0  0  0  0  0  0  0  0
   -8.7533  -19.9045   16.6462 C   0  0  0  0  0  0  0  0  0  0  0  0
   -8.3798  -20.4988   18.0632 C   0  0  0  0  0  0  0  0  0  0  0  0
   -9.1347  -20.4229   19.6678 N   0  0  0  0  0  0  0  0  0  0  0  0
   -9.9779  -21.6640   20.6445 C   0  0  0  0  0  0  0  0  0  0  0  0
  -10.0342  -22.7392   20.3172 O   0  0  0  0  0  0  0  0  0  0  0  0
  -10.7149  -21.0862   21.9078 N   0  0  0  0  0  0  0  0  0  0  0  0
  -11.6278  -21.6763   22.8141 C   0  0  0  0  0  0  0  0  0  0  0  0
  -12.6908  -22.4197   22.5326 C   0  0  0  0  0  0  0  0  0  0  0  0
  -13.6750  -22.7780   23.5263 C   0  0  0  0  0  0  0  0  0  0  0  0
  -13.2089  -22.9756   24.7689 C   0  0  0  0  0  0  0  0  0  0  0  0
  -13.4925  -23.8532   25.7540 N   0  0  0  0  0  0  0  0  0  0  0  0
  -12.5802  -23.6862   26.7564 C   0  0  0  0  0  0  0  0  0  0  0  0
  -12.0575  -22.4272   26.5550 C   0  0  0  0  0  0  0  0  0  0  0  0
  -12.2654  -22.1012   25.1602 C   0  0  0  0  0  0  0  0  0  0  0  0
  -11.7387  -21.2441   24.1107 C   0  0  0  0  0  0  0  0  0  0  0  0
   -8.5509  -20.6912   15.4939 C   0  0  0  0  0  0  0  0  0  0  0  0
   -6.2013  -21.1199   13.8406 H   0  0  0  0  0  0  0  0  0  0  0  0
   -6.3132  -21.5212   12.1321 H   0  0  0  0  0  0  0  0  0  0  0  0
   -6.3921  -19.8309   12.6481 H   0  0  0  0  0  0  0  0  0  0  0  0
   -8.6915  -20.5787   12.1038 H   0  0  0  0  0  0  0  0  0  0  0  0
   -8.5260  -21.9956   13.1307 H   0  0  0  0  0  0  0  0  0  0  0  0
   -9.1866  -18.3633   13.1132 H   0  0  0  0  0  0  0  0  0  0  0  0
   -9.5130  -17.0560   15.1967 H   0  0  0  0  0  0  0  0  0  0  0  0
   -7.4290  -20.9985   17.8745 H   0  0  0  0  0  0  0  0  0  0  0  0
   -7.8581  -19.5507   18.3345 H   0  0  0  0  0  0  0  0  0  0  0  0
   -9.1195  -19.6116   20.1427 H   0  0  0  0  0  0  0  0  0  0  0  0
  -10.5877  -20.1548   21.9316 H   0  0  0  0  0  0  0  0  0  0  0  0
  -12.7706  -22.6578   21.4761 H   0  0  0  0  0  0  0  0  0  0  0  0
  -14.6911  -23.0305   23.4068 H   0  0  0  0  0  0  0  0  0  0  0  0
  -14.1983  -24.5707   25.6863 H   0  0  0  0  0  0  0  0  0  0  0  0
  -12.5086  -24.3528   27.6045 H   0  0  0  0  0  0  0  0  0  0  0  0
  -11.4335  -21.9198   27.2749 H   0  0  0  0  0  0  0  0  0  0  0  0
  -11.0302  -20.4954   24.3227 H   0  0  0  0  0  0  0  0  0  0  0  0
   -8.1999  -21.7111   15.5693 H   0  0  0  0  0  0  0  0  0  0  0  0
  1  2  1  0
  2  3  1  0
  3  4  2  0
  4  5  1  0
  5  6  2  0
  6  7  1  0
  7  8  1  0
  8  9  1  0
  9 10  1  0
 10 11  2  0
 10 12  1  0
 12 13  1  0
 13 14  2  0
 14 15  1  0
 15 16  2  0
 16 17  1  0
 17 18  1  0
 18 19  2  0
 19 20  1  0
 20 21  2  0
  7 22  2  0
 22  3  1  0
 21 13  1  0
 20 16  1  0
  1 23  1  0
  1 24  1  0
  1 25  1  0
  2 26  1  0
  2 27  1  0
  4 28  1  0
  5 29  1  0
  8 30  1  0
  8 31  1  0
  9 32  1  0
 12 33  1  0
 14 34  1  0
 15 35  1  0
 17 36  1  0
 18 37  1  0
 19 38  1  0
 21 39  1  0
 22 40  1  0
M  END
>  <Energy>  (637) 
179.57646501026707

>  <compound_id>  (637) 
5627

>  <target_id>  (637) 
1

>  <reference_id>  (637) 
48

>  <inspiration_ids>  (637) 
[48, 39]

>  <energy_score>  (637) 
170.2497496604014

>  <distance_score>  (637) 
8.646873324580522

>  <path>  (637) 
/opt/xchem-fragalysis-2/maxwin/BulkDock/SCRATCH/511018/C5627-P48/C5627-P48.minimised.mol

>  <scratch_subdir>  (637) 
/opt/xchem-fragalysis-2/maxwin/BulkDock/SCRATCH/511018/C5627-P48

>  <fragmenstein_runtime>  (637) 
6.961960792541504

>  <fragmenstein_outcome>  (637) 
too moved

>  <fragmenstein_mode>  (637) 
expansion

>  <fragmenstein_error>  (637) 


$$$$
C5627-P39
     RDKit          3D

 40 42  0  0  0  0  0  0  0  0999 V2000
  -13.7643  -33.9385   21.1320 C   0  0  0  0  0  0  0  0  0  0  0  0
  -13.1307  -32.8020   20.3450 C   0  0  0  0  0  0  0  0  0  0  0  0
  -11.6493  -32.6963   20.5925 C   0  0  0  0  0  0  0  0  0  0  0  0
  -10.7421  -33.3487   19.7642 C   0  0  0  0  0  0  0  0  0  0  0  0
   -9.3973  -33.2200   20.0607 C   0  0  0  0  0  0  0  0  0  0  0  0
   -8.9197  -32.5249   21.1219 N   0  0  0  0  0  0  0  0  0  0  0  0
   -9.7910  -31.9455   21.9864 C   0  0  0  0  0  0  0  0  0  0  0  0
   -9.2030  -31.4838   23.3347 C   0  0  0  0  0  0  0  0  0  0  0  0
   -9.6738  -30.2445   23.9528 N   0  0  0  0  0  0  0  0  0  0  0  0
   -9.9760  -29.9195   25.3785 C   0  0  0  0  0  0  0  0  0  0  0  0
   -9.9310  -30.5986   26.3375 O   0  0  0  0  0  0  0  0  0  0  0  0
  -10.4093  -28.3456   25.2600 N   0  0  0  0  0  0  0  0  0  0  0  0
  -10.9585  -27.3787   26.3121 C   0  0  0  0  0  0  0  0  0  0  0  0
  -11.5189  -27.6898   27.5744 C   0  0  0  0  0  0  0  0  0  0  0  0
  -11.8860  -26.7672   28.5642 C   0  0  0  0  0  0  0  0  0  0  0  0
  -11.8447  -25.4407   28.1976 C   0  0  0  0  0  0  0  0  0  0  0  0
  -12.0930  -24.3125   28.9384 N   0  0  0  0  0  0  0  0  0  0  0  0
  -11.9900  -23.2158   28.1326 C   0  0  0  0  0  0  0  0  0  0  0  0
  -11.7621  -23.6601   26.8492 C   0  0  0  0  0  0  0  0  0  0  0  0
  -11.5486  -25.0568   26.8965 C   0  0  0  0  0  0  0  0  0  0  0  0
  -11.1384  -26.0382   25.9534 C   0  0  0  0  0  0  0  0  0  0  0  0
  -11.1594  -32.0330   21.7352 C   0  0  0  0  0  0  0  0  0  0  0  0
  -13.3195  -34.9028   20.8639 H   0  0  0  0  0  0  0  0  0  0  0  0
  -13.6351  -33.7970   22.2104 H   0  0  0  0  0  0  0  0  0  0  0  0
  -14.8377  -33.9898   20.9241 H   0  0  0  0  0  0  0  0  0  0  0  0
  -13.3176  -32.9450   19.2737 H   0  0  0  0  0  0  0  0  0  0  0  0
  -13.6108  -31.8537   20.6111 H   0  0  0  0  0  0  0  0  0  0  0  0
  -11.0653  -33.9471   18.9189 H   0  0  0  0  0  0  0  0  0  0  0  0
   -8.6324  -33.6897   19.4474 H   0  0  0  0  0  0  0  0  0  0  0  0
   -9.3443  -32.2902   24.0630 H   0  0  0  0  0  0  0  0  0  0  0  0
   -8.1227  -31.3496   23.2064 H   0  0  0  0  0  0  0  0  0  0  0  0
   -9.8957  -29.4536   23.3784 H   0  0  0  0  0  0  0  0  0  0  0  0
  -10.4255  -28.0772   24.3076 H   0  0  0  0  0  0  0  0  0  0  0  0
  -11.6844  -28.7331   27.8363 H   0  0  0  0  0  0  0  0  0  0  0  0
  -12.1758  -27.0892   29.5566 H   0  0  0  0  0  0  0  0  0  0  0  0
  -12.3102  -24.3075   29.9285 H   0  0  0  0  0  0  0  0  0  0  0  0
  -12.1110  -22.2198   28.5328 H   0  0  0  0  0  0  0  0  0  0  0  0
  -11.7030  -23.0298   25.9747 H   0  0  0  0  0  0  0  0  0  0  0  0
  -10.9118  -25.6934   24.9577 H   0  0  0  0  0  0  0  0  0  0  0  0
  -11.8589  -31.6809   22.4818 H   0  0  0  0  0  0  0  0  0  0  0  0
  1  2  1  0
  2  3  1  0
  3  4  2  0
  4  5  1  0
  5  6  2  0
  6  7  1  0
  7  8  1  0
  8  9  1  0
  9 10  1  0
 10 11  2  0
 10 12  1  0
 12 13  1  0
 13 14  2  0
 14 15  1  0
 15 16  2  0
 16 17  1  0
 17 18  1  0
 18 19  2  0
 19 20  1  0
 20 21  2  0
  7 22  2  0
 22  3  1  0
 21 13  1  0
 20 16  1  0
  1 23  1  0
  1 24  1  0
  1 25  1  0
  2 26  1  0
  2 27  1  0
  4 28  1  0
  5 29  1  0
  8 30  1  0
  8 31  1  0
  9 32  1  0
 12 33  1  0
 14 34  1  0
 15 35  1  0
 17 36  1  0
 18 37  1  0
 19 38  1  0
 21 39  1  0
 22 40  1  0
M  END
>  <Energy>  (638) 
15.680291934927206

>  <compound_id>  (638) 
5627

>  <target_id>  (638) 
1

>  <reference_id>  (638) 
39

>  <inspiration_ids>  (638) 
[48, 39]

>  <energy_score>  (638) 
6.353576585063024

>  <distance_score>  (638) 
9.743928093007707

>  <path>  (638) 
/opt/xchem-fragalysis-2/maxwin/BulkDock/SCRATCH/511018/C5627-P39/C5627-P39.minimised.mol

>  <scratch_subdir>  (638) 
/opt/xchem-fragalysis-2/maxwin/BulkDock/SCRATCH/511018/C5627-P39

>  <fragmenstein_runtime>  (638) 
14.7933669090271

>  <fragmenstein_outcome>  (638) 
too moved

>  <fragmenstein_mode>  (638) 
expansion

>  <fragmenstein_error>  (638) 


$$$$
C5629-P48
     RDKit          3D

 42 44  0  0  0  0  0  0  0  0999 V2000
  -17.8503  -23.3071   24.3393 C   0  0  0  0  0  0  0  0  0  0  0  0
  -17.1414  -24.4779   23.9546 O   0  0  0  0  0  0  0  0  0  0  0  0
  -17.9115  -25.6610   24.1623 C   0  0  0  0  0  0  0  0  0  0  0  0
  -17.1584  -26.9505   23.7170 C   0  0  0  0  0  0  0  0  0  0  0  0
  -16.8598  -27.0434   22.2562 N   0  0  0  0  0  0  0  0  0  0  0  0
  -17.7380  -26.9411   21.0900 C   0  0  0  0  0  0  0  0  0  0  0  0
  -18.9049  -26.6786   21.0126 O   0  0  0  0  0  0  0  0  0  0  0  0
  -17.0734  -27.2202   19.7138 C   0  0  0  0  0  0  0  0  0  0  0  0
  -16.3607  -28.4045   19.5121 C   0  0  0  0  0  0  0  0  0  0  0  0
  -15.7539  -28.6565   18.2780 C   0  0  0  0  0  0  0  0  0  0  0  0
  -15.8251  -27.8373   17.2150 N   0  0  0  0  0  0  0  0  0  0  0  0
  -16.5870  -26.7418   17.3756 C   0  0  0  0  0  0  0  0  0  0  0  0
  -17.2392  -26.3941   18.5709 C   0  0  0  0  0  0  0  0  0  0  0  0
  -18.1278  -25.1905   18.5108 C   0  0  0  0  0  0  0  0  0  0  0  0
  -15.9882  -27.2260   24.7085 C   0  0  0  0  0  0  0  0  0  0  0  0
  -16.1009  -28.3050   25.6030 C   0  0  0  0  0  0  0  0  0  0  0  0
  -15.1776  -28.5425   26.6381 C   0  0  0  0  0  0  0  0  0  0  0  0
  -14.1024  -27.6640   26.7736 C   0  0  0  0  0  0  0  0  0  0  0  0
  -13.0760  -27.6473   27.6923 N   0  0  0  0  0  0  0  0  0  0  0  0
  -12.2832  -26.5521   27.4874 C   0  0  0  0  0  0  0  0  0  0  0  0
  -12.8043  -25.8545   26.4239 C   0  0  0  0  0  0  0  0  0  0  0  0
  -13.9353  -26.5709   25.9305 C   0  0  0  0  0  0  0  0  0  0  0  0
  -14.8914  -26.3559   24.8998 C   0  0  0  0  0  0  0  0  0  0  0  0
  -18.7532  -23.1909   23.7325 H   0  0  0  0  0  0  0  0  0  0  0  0
  -17.2022  -22.4427   24.1713 H   0  0  0  0  0  0  0  0  0  0  0  0
  -18.1109  -23.3484   25.4011 H   0  0  0  0  0  0  0  0  0  0  0  0
  -18.1759  -25.7339   25.2249 H   0  0  0  0  0  0  0  0  0  0  0  0
  -18.8400  -25.5761   23.5852 H   0  0  0  0  0  0  0  0  0  0  0  0
  -17.8849  -27.7627   23.8567 H   0  0  0  0  0  0  0  0  0  0  0  0
  -15.9563  -27.3631   21.9597 H   0  0  0  0  0  0  0  0  0  0  0  0
  -16.3009  -29.1515   20.2955 H   0  0  0  0  0  0  0  0  0  0  0  0
  -15.1870  -29.5697   18.1155 H   0  0  0  0  0  0  0  0  0  0  0  0
  -16.6840  -26.1269   16.4828 H   0  0  0  0  0  0  0  0  0  0  0  0
  -19.1201  -25.4813   18.1510 H   0  0  0  0  0  0  0  0  0  0  0  0
  -17.7204  -24.4308   17.8351 H   0  0  0  0  0  0  0  0  0  0  0  0
  -18.2435  -24.7152   19.4877 H   0  0  0  0  0  0  0  0  0  0  0  0
  -16.9536  -28.9814   25.5259 H   0  0  0  0  0  0  0  0  0  0  0  0
  -15.3168  -29.3807   27.3156 H   0  0  0  0  0  0  0  0  0  0  0  0
  -12.9591  -28.3215   28.4386 H   0  0  0  0  0  0  0  0  0  0  0  0
  -11.4479  -26.3371   28.1421 H   0  0  0  0  0  0  0  0  0  0  0  0
  -12.4384  -24.8944   26.0872 H   0  0  0  0  0  0  0  0  0  0  0  0
  -14.8018  -25.4555   24.3049 H   0  0  0  0  0  0  0  0  0  0  0  0
  1  2  1  0
  2  3  1  0
  3  4  1  0
  4  5  1  0
  5  6  1  0
  6  7  2  0
  6  8  1  0
  8  9  2  0
  9 10  1  0
 10 11  2  0
 11 12  1  0
 12 13  2  0
 13 14  1  0
  4 15  1  0
 15 16  2  0
 16 17  1  0
 17 18  2  0
 18 19  1  0
 19 20  1  0
 20 21  2  0
 21 22  1  0
 22 23  2  0
 13  8  1  0
 23 15  1  0
 22 18  1  0
  1 24  1  0
  1 25  1  0
  1 26  1  0
  3 27  1  0
  3 28  1  0
  4 29  1  0
  5 30  1  0
  9 31  1  0
 10 32  1  0
 12 33  1  0
 14 34  1  0
 14 35  1  0
 14 36  1  0
 16 37  1  0
 17 38  1  0
 19 39  1  0
 20 40  1  0
 21 41  1  0
 23 42  1  0
M  END
>  <Energy>  (639) 
58.401756846708672

>  <compound_id>  (639) 
5629

>  <target_id>  (639) 
1

>  <reference_id>  (639) 
48

>  <inspiration_ids>  (639) 
[48, 39]

>  <energy_score>  (639) 
-10.8038148020741

>  <distance_score>  (639) 
9.137068381095752

>  <path>  (639) 
/opt/xchem-fragalysis-2/maxwin/BulkDock/SCRATCH/511018/C5629-P48/C5629-P48.minimised.mol

>  <scratch_subdir>  (639) 
/opt/xchem-fragalysis-2/maxwin/BulkDock/SCRATCH/511018/C5629-P48

>  <fragmenstein_runtime>  (639) 
7.175374507904053

>  <fragmenstein_outcome>  (639) 
too moved

>  <fragmenstein_mode>  (639) 
expansion

>  <fragmenstein_error>  (639) 


$$$$
C5629-P39
     RDKit          3D

 42 44  0  0  0  0  0  0  0  0999 V2000
  -11.5819  -25.1221   29.9753 C   0  0  0  0  0  0  0  0  0  0  0  0
  -12.0545  -25.0792   28.6326 O   0  0  0  0  0  0  0  0  0  0  0  0
  -11.1183  -25.6866   27.7272 C   0  0  0  0  0  0  0  0  0  0  0  0
  -11.8182  -25.9159   26.3645 C   0  0  0  0  0  0  0  0  0  0  0  0
  -11.3082  -27.2795   25.6013 N   0  0  0  0  0  0  0  0  0  0  0  0
  -10.0130  -27.9985   25.6458 C   0  0  0  0  0  0  0  0  0  0  0  0
   -8.9945  -27.7130   26.1889 O   0  0  0  0  0  0  0  0  0  0  0  0
   -9.8729  -29.6387   24.9033 C   0  0  0  0  0  0  0  0  0  0  0  0
  -10.2222  -30.6801   25.7890 C   0  0  0  0  0  0  0  0  0  0  0  0
  -10.2355  -32.0333   25.4385 C   0  0  0  0  0  0  0  0  0  0  0  0
   -9.8660  -32.5222   24.2584 N   0  0  0  0  0  0  0  0  0  0  0  0
   -9.4318  -31.6065   23.4041 C   0  0  0  0  0  0  0  0  0  0  0  0
   -9.4360  -30.2085   23.6355 C   0  0  0  0  0  0  0  0  0  0  0  0
   -9.1595  -29.5849   22.3096 C   0  0  0  0  0  0  0  0  0  0  0  0
  -12.1452  -24.6000   25.5273 C   0  0  0  0  0  0  0  0  0  0  0  0
  -13.1414  -23.8204   24.8134 C   0  0  0  0  0  0  0  0  0  0  0  0
  -12.7878  -22.9727   23.3608 C   0  0  0  0  0  0  0  0  0  0  0  0
  -11.5077  -23.3580   22.3140 C   0  0  0  0  0  0  0  0  0  0  0  0
  -11.5062  -24.6314   20.6716 N   0  0  0  0  0  0  0  0  0  0  0  0
  -11.1182  -26.4924   21.4264 C   0  0  0  0  0  0  0  0  0  0  0  0
  -11.6167  -26.2388   23.4130 C   0  0  0  0  0  0  0  0  0  0  0  0
  -10.9439  -24.3750   23.8269 C   0  0  0  0  0  0  0  0  0  0  0  0
  -11.0791  -23.9422   25.1587 C   0  0  0  0  0  0  0  0  0  0  0  0
  -12.2609  -24.5356   30.5995 H   0  0  0  0  0  0  0  0  0  0  0  0
  -10.5782  -24.6967   30.0463 H   0  0  0  0  0  0  0  0  0  0  0  0
  -11.5755  -26.1545   30.3379 H   0  0  0  0  0  0  0  0  0  0  0  0
  -10.2366  -25.0457   27.6287 H   0  0  0  0  0  0  0  0  0  0  0  0
  -10.8100  -26.6501   28.1444 H   0  0  0  0  0  0  0  0  0  0  0  0
  -12.8388  -26.2378   26.6229 H   0  0  0  0  0  0  0  0  0  0  0  0
  -11.9805  -27.8434   25.1214 H   0  0  0  0  0  0  0  0  0  0  0  0
  -10.5910  -30.4846   26.7873 H   0  0  0  0  0  0  0  0  0  0  0  0
  -10.5521  -32.7790   26.1649 H   0  0  0  0  0  0  0  0  0  0  0  0
   -9.1041  -32.0253   22.4524 H   0  0  0  0  0  0  0  0  0  0  0  0
   -9.6765  -30.1075   21.4940 H   0  0  0  0  0  0  0  0  0  0  0  0
   -8.0948  -29.5826   22.0741 H   0  0  0  0  0  0  0  0  0  0  0  0
   -9.6210  -28.6230   22.3528 H   0  0  0  0  0  0  0  0  0  0  0  0
  -14.2068  -23.9200   25.0148 H   0  0  0  0  0  0  0  0  0  0  0  0
  -13.6623  -22.5809   22.8592 H   0  0  0  0  0  0  0  0  0  0  0  0
  -12.3475  -24.6619   20.0917 H   0  0  0  0  0  0  0  0  0  0  0  0
  -10.2811  -26.3807   20.7347 H   0  0  0  0  0  0  0  0  0  0  0  0
  -12.4588  -26.6591   23.9739 H   0  0  0  0  0  0  0  0  0  0  0  0
  -11.2395  -22.8982   25.3847 H   0  0  0  0  0  0  0  0  0  0  0  0
  1  2  1  0
  2  3  1  0
  3  4  1  0
  4  5  1  0
  5  6  1  0
  6  7  2  0
  6  8  1  0
  8  9  2  0
  9 10  1  0
 10 11  2  0
 11 12  1  0
 12 13  2  0
 13 14  1  0
  4 15  1  0
 15 16  2  0
 16 17  1  0
 17 18  2  0
 18 19  1  0
 19 20  1  0
 20 21  2  0
 21 22  1  0
 22 23  2  0
 13  8  1  0
 23 15  1  0
 22 18  1  0
  1 24  1  0
  1 25  1  0
  1 26  1  0
  3 27  1  0
  3 28  1  0
  4 29  1  0
  5 30  1  0
  9 31  1  0
 10 32  1  0
 12 33  1  0
 14 34  1  0
 14 35  1  0
 14 36  1  0
 16 37  1  0
 17 38  1  0
 19 39  1  0
 20 40  1  0
 21 41  1  0
 23 42  1  0
M  END
>  <Energy>  (640) 
983.78485532588184

>  <compound_id>  (640) 
5629

>  <target_id>  (640) 
1

>  <reference_id>  (640) 
39

>  <inspiration_ids>  (640) 
[48, 39]

>  <energy_score>  (640) 
914.5792836771132

>  <distance_score>  (640) 
11.230419713884382

>  <path>  (640) 
/opt/xchem-fragalysis-2/maxwin/BulkDock/SCRATCH/511018/C5629-P39/C5629-P39.minimised.mol

>  <scratch_subdir>  (640) 
/opt/xchem-fragalysis-2/maxwin/BulkDock/SCRATCH/511018/C5629-P39

>  <fragmenstein_runtime>  (640) 
16.320252180099487

>  <fragmenstein_outcome>  (640) 
too moved

>  <fragmenstein_mode>  (640) 
expansion

>  <fragmenstein_error>  (640) 


$$$$
C5630-P48
     RDKit          3D

 39 41  0  0  0  0  0  0  0  0999 V2000
  -21.4851  -23.7961   22.4065 C   0  0  0  0  0  0  0  0  0  0  0  0
  -20.1714  -23.3942   22.0426 O   0  0  0  0  0  0  0  0  0  0  0  0
  -19.9911  -21.9776   22.2086 C   0  0  0  0  0  0  0  0  0  0  0  0
  -18.6012  -21.5245   21.7118 C   0  0  0  0  0  0  0  0  0  0  0  0
  -18.3533  -21.9483   20.2940 N   0  0  0  0  0  0  0  0  0  0  0  0
  -18.5872  -21.2608   19.0446 C   0  0  0  0  0  0  0  0  0  0  0  0
  -18.9666  -20.1433   18.8267 O   0  0  0  0  0  0  0  0  0  0  0  0
  -18.2091  -22.0101   17.7354 C   0  0  0  0  0  0  0  0  0  0  0  0
  -18.1842  -21.2631   16.5315 C   0  0  0  0  0  0  0  0  0  0  0  0
  -17.7796  -21.8443   15.3253 C   0  0  0  0  0  0  0  0  0  0  0  0
  -17.4015  -23.1293   15.2039 N   0  0  0  0  0  0  0  0  0  0  0  0
  -17.4229  -23.8402   16.3549 C   0  0  0  0  0  0  0  0  0  0  0  0
  -17.8164  -23.3406   17.6035 C   0  0  0  0  0  0  0  0  0  0  0  0
  -17.7833  -24.1807   18.6412 F   0  0  0  0  0  0  0  0  0  0  0  0
  -17.4772  -21.8655   22.7143 C   0  0  0  0  0  0  0  0  0  0  0  0
  -17.5853  -22.8609   23.7052 C   0  0  0  0  0  0  0  0  0  0  0  0
  -16.5044  -23.2501   24.5086 C   0  0  0  0  0  0  0  0  0  0  0  0
  -15.2681  -22.6681   24.2247 C   0  0  0  0  0  0  0  0  0  0  0  0
  -14.0012  -22.9893   24.6585 N   0  0  0  0  0  0  0  0  0  0  0  0
  -13.0688  -22.2111   24.0227 C   0  0  0  0  0  0  0  0  0  0  0  0
  -13.7403  -21.3136   23.2327 C   0  0  0  0  0  0  0  0  0  0  0  0
  -15.1268  -21.6189   23.3222 C   0  0  0  0  0  0  0  0  0  0  0  0
  -16.2643  -21.1600   22.6272 C   0  0  0  0  0  0  0  0  0  0  0  0
  -21.6811  -23.5581   23.4564 H   0  0  0  0  0  0  0  0  0  0  0  0
  -21.5629  -24.8784   22.2733 H   0  0  0  0  0  0  0  0  0  0  0  0
  -22.2264  -23.3112   21.7643 H   0  0  0  0  0  0  0  0  0  0  0  0
  -20.1537  -21.6993   23.2570 H   0  0  0  0  0  0  0  0  0  0  0  0
  -20.7536  -21.4717   21.6024 H   0  0  0  0  0  0  0  0  0  0  0  0
  -18.6474  -20.4270   21.6776 H   0  0  0  0  0  0  0  0  0  0  0  0
  -18.1157  -22.9122   20.1002 H   0  0  0  0  0  0  0  0  0  0  0  0
  -18.4579  -20.2107   16.5340 H   0  0  0  0  0  0  0  0  0  0  0  0
  -17.7527  -21.2593   14.4102 H   0  0  0  0  0  0  0  0  0  0  0  0
  -17.1036  -24.8742   16.2668 H   0  0  0  0  0  0  0  0  0  0  0  0
  -18.5157  -23.4060   23.8424 H   0  0  0  0  0  0  0  0  0  0  0  0
  -16.6101  -24.0609   25.2182 H   0  0  0  0  0  0  0  0  0  0  0  0
  -13.8094  -23.6477   25.3951 H   0  0  0  0  0  0  0  0  0  0  0  0
  -12.0187  -22.3134   24.2202 H   0  0  0  0  0  0  0  0  0  0  0  0
  -13.2879  -20.5544   22.6092 H   0  0  0  0  0  0  0  0  0  0  0  0
  -16.1528  -20.3593   21.8997 H   0  0  0  0  0  0  0  0  0  0  0  0
  1  2  1  0
  2  3  1  0
  3  4  1  0
  4  5  1  0
  5  6  1  0
  6  7  2  0
  6  8  1  0
  8  9  2  0
  9 10  1  0
 10 11  2  0
 11 12  1  0
 12 13  2  0
 13 14  1  0
  4 15  1  0
 15 16  2  0
 16 17  1  0
 17 18  2  0
 18 19  1  0
 19 20  1  0
 20 21  2  0
 21 22  1  0
 22 23  2  0
 13  8  1  0
 23 15  1  0
 22 18  1  0
  1 24  1  0
  1 25  1  0
  1 26  1  0
  3 27  1  0
  3 28  1  0
  4 29  1  0
  5 30  1  0
  9 31  1  0
 10 32  1  0
 12 33  1  0
 16 34  1  0
 17 35  1  0
 19 36  1  0
 20 37  1  0
 21 38  1  0
 23 39  1  0
M  END
>  <Energy>  (641) 
58.170418149052985

>  <compound_id>  (641) 
5630

>  <target_id>  (641) 
1

>  <reference_id>  (641) 
48

>  <inspiration_ids>  (641) 
[48, 39]

>  <energy_score>  (641) 
-10.70690971421537

>  <distance_score>  (641) 
9.92703930321526

>  <path>  (641) 
/opt/xchem-fragalysis-2/maxwin/BulkDock/SCRATCH/511018/C5630-P48/C5630-P48.minimised.mol

>  <scratch_subdir>  (641) 
/opt/xchem-fragalysis-2/maxwin/BulkDock/SCRATCH/511018/C5630-P48

>  <fragmenstein_runtime>  (641) 
5.047876834869385

>  <fragmenstein_outcome>  (641) 
too moved

>  <fragmenstein_mode>  (641) 
expansion

>  <fragmenstein_error>  (641) 


$$$$
C5630-P39
     RDKit          3D

 39 41  0  0  0  0  0  0  0  0999 V2000
  -15.6196  -15.0257   19.5124 C   0  0  0  0  0  0  0  0  0  0  0  0
  -16.2088  -16.3029   19.7170 O   0  0  0  0  0  0  0  0  0  0  0  0
  -15.2821  -17.2106   20.3397 C   0  0  0  0  0  0  0  0  0  0  0  0
  -15.8888  -18.6206   20.3482 C   0  0  0  0  0  0  0  0  0  0  0  0
  -16.0493  -19.2767   19.0295 N   0  0  0  0  0  0  0  0  0  0  0  0
  -15.2128  -19.2641   17.8623 C   0  0  0  0  0  0  0  0  0  0  0  0
  -14.2100  -18.6567   17.6271 O   0  0  0  0  0  0  0  0  0  0  0  0
  -15.7272  -20.1173   16.7356 C   0  0  0  0  0  0  0  0  0  0  0  0
  -16.5767  -19.5490   15.7839 C   0  0  0  0  0  0  0  0  0  0  0  0
  -16.9718  -20.3152   14.6886 C   0  0  0  0  0  0  0  0  0  0  0  0
  -16.5609  -21.5809   14.4601 N   0  0  0  0  0  0  0  0  0  0  0  0
  -15.7205  -22.1009   15.3828 C   0  0  0  0  0  0  0  0  0  0  0  0
  -15.2917  -21.4217   16.5173 C   0  0  0  0  0  0  0  0  0  0  0  0
  -14.4766  -22.0576   17.3613 F   0  0  0  0  0  0  0  0  0  0  0  0
  -15.1034  -19.4527   21.3441 C   0  0  0  0  0  0  0  0  0  0  0  0
  -15.6874  -19.8254   22.5646 C   0  0  0  0  0  0  0  0  0  0  0  0
  -15.0163  -20.6517   23.4585 C   0  0  0  0  0  0  0  0  0  0  0  0
  -13.7491  -21.1004   23.0857 C   0  0  0  0  0  0  0  0  0  0  0  0
  -12.8979  -21.9583   23.7249 N   0  0  0  0  0  0  0  0  0  0  0  0
  -11.7914  -22.1647   22.9655 C   0  0  0  0  0  0  0  0  0  0  0  0
  -11.8709  -21.3832   21.8474 C   0  0  0  0  0  0  0  0  0  0  0  0
  -13.1103  -20.7096   21.9135 C   0  0  0  0  0  0  0  0  0  0  0  0
  -13.7801  -19.8364   21.0480 C   0  0  0  0  0  0  0  0  0  0  0  0
  -15.2987  -14.5939   20.4652 H   0  0  0  0  0  0  0  0  0  0  0  0
  -16.3702  -14.3683   19.0654 H   0  0  0  0  0  0  0  0  0  0  0  0
  -14.7704  -15.1015   18.8265 H   0  0  0  0  0  0  0  0  0  0  0  0
  -14.3289  -17.1913   19.7986 H   0  0  0  0  0  0  0  0  0  0  0  0
  -15.1052  -16.8536   21.3622 H   0  0  0  0  0  0  0  0  0  0  0  0
  -16.9239  -18.5339   20.7041 H   0  0  0  0  0  0  0  0  0  0  0  0
  -16.7713  -19.9733   18.9099 H   0  0  0  0  0  0  0  0  0  0  0  0
  -16.9127  -18.5216   15.8864 H   0  0  0  0  0  0  0  0  0  0  0  0
  -17.6393  -19.9025   13.9356 H   0  0  0  0  0  0  0  0  0  0  0  0
  -15.3806  -23.1143   15.1944 H   0  0  0  0  0  0  0  0  0  0  0  0
  -16.6890  -19.4888   22.8249 H   0  0  0  0  0  0  0  0  0  0  0  0
  -15.4846  -20.9568   24.3851 H   0  0  0  0  0  0  0  0  0  0  0  0
  -13.0600  -22.2877   24.6692 H   0  0  0  0  0  0  0  0  0  0  0  0
  -11.0125  -22.8302   23.2889 H   0  0  0  0  0  0  0  0  0  0  0  0
  -11.1308  -21.3197   21.0620 H   0  0  0  0  0  0  0  0  0  0  0  0
  -13.3083  -19.5441   20.1129 H   0  0  0  0  0  0  0  0  0  0  0  0
  1  2  1  0
  2  3  1  0
  3  4  1  0
  4  5  1  0
  5  6  1  0
  6  7  2  0
  6  8  1  0
  8  9  2  0
  9 10  1  0
 10 11  2  0
 11 12  1  0
 12 13  2  0
 13 14  1  0
  4 15  1  0
 15 16  2  0
 16 17  1  0
 17 18  2  0
 18 19  1  0
 19 20  1  0
 20 21  2  0
 21 22  1  0
 22 23  2  0
 13  8  1  0
 23 15  1  0
 22 18  1  0
  1 24  1  0
  1 25  1  0
  1 26  1  0
  3 27  1  0
  3 28  1  0
  4 29  1  0
  5 30  1  0
  9 31  1  0
 10 32  1  0
 12 33  1  0
 16 34  1  0
 17 35  1  0
 19 36  1  0
 20 37  1  0
 21 38  1  0
 23 39  1  0
M  END
>  <Energy>  (642) 
56.910984723961306

>  <compound_id>  (642) 
5630

>  <target_id>  (642) 
1

>  <reference_id>  (642) 
39

>  <inspiration_ids>  (642) 
[48, 39]

>  <energy_score>  (642) 
-11.966343139308492

>  <distance_score>  (642) 
10.088198092980385

>  <path>  (642) 
/opt/xchem-fragalysis-2/maxwin/BulkDock/SCRATCH/511018/C5630-P39/C5630-P39.minimised.mol

>  <scratch_subdir>  (642) 
/opt/xchem-fragalysis-2/maxwin/BulkDock/SCRATCH/511018/C5630-P39

>  <fragmenstein_runtime>  (642) 
14.757787942886353

>  <fragmenstein_outcome>  (642) 
too moved

>  <fragmenstein_mode>  (642) 
expansion

>  <fragmenstein_error>  (642) 


$$$$
C5631-P48
     RDKit          3D

 46 49  0  0  0  0  0  0  0  0999 V2000
   -9.9713  -26.5036   21.4448 O   0  0  0  0  0  0  0  0  0  0  0  0
  -10.7746  -26.2162   22.1347 C   0  0  0  0  0  0  0  0  0  0  0  0
  -12.4851  -25.3402   21.4121 N   0  0  0  0  0  0  0  0  0  0  0  0
  -12.9862  -25.0513   19.7787 C   0  0  0  0  0  0  0  0  0  0  0  0
  -13.3952  -25.9285   18.4002 C   0  0  0  0  0  0  0  0  0  0  0  0
  -12.8815  -27.1665   18.0374 C   0  0  0  0  0  0  0  0  0  0  0  0
  -13.1261  -27.6316   16.7505 C   0  0  0  0  0  0  0  0  0  0  0  0
  -13.8590  -26.9820   15.8170 N   0  0  0  0  0  0  0  0  0  0  0  0
  -14.4052  -25.7971   16.1493 C   0  0  0  0  0  0  0  0  0  0  0  0
  -15.1385  -25.1354   15.2043 N   0  0  0  0  0  0  0  0  0  0  0  0
  -15.2714  -25.6693   13.8568 C   0  0  0  0  0  0  0  0  0  0  0  0
  -15.9019  -24.5136   13.0825 C   0  0  0  0  0  0  0  0  0  0  0  0
  -16.7528  -23.8179   14.1337 C   0  0  0  0  0  0  0  0  0  0  0  0
  -15.8971  -23.9125   15.3961 C   0  0  0  0  0  0  0  0  0  0  0  0
  -14.1890  -25.2646   17.4272 C   0  0  0  0  0  0  0  0  0  0  0  0
  -11.0105  -26.4646   24.2226 N   0  0  0  0  0  0  0  0  0  0  0  0
  -10.2370  -27.1450   25.2383 C   0  0  0  0  0  0  0  0  0  0  0  0
  -10.2920  -25.7141   25.9677 C   0  0  0  0  0  0  0  0  0  0  0  0
  -11.0550  -25.1193   27.0222 C   0  0  0  0  0  0  0  0  0  0  0  0
  -11.9050  -25.9909   27.6420 C   0  0  0  0  0  0  0  0  0  0  0  0
  -12.7277  -25.8091   28.7247 N   0  0  0  0  0  0  0  0  0  0  0  0
  -13.2354  -27.0214   29.1074 C   0  0  0  0  0  0  0  0  0  0  0  0
  -12.6876  -27.9891   28.2923 C   0  0  0  0  0  0  0  0  0  0  0  0
  -11.9006  -27.3357   27.3060 C   0  0  0  0  0  0  0  0  0  0  0  0
  -10.9458  -27.7848   26.2993 C   0  0  0  0  0  0  0  0  0  0  0  0
  -13.1793  -25.2366   22.1818 H   0  0  0  0  0  0  0  0  0  0  0  0
  -11.9773  -25.2601   19.5295 H   0  0  0  0  0  0  0  0  0  0  0  0
  -13.8210  -25.6899   20.0552 H   0  0  0  0  0  0  0  0  0  0  0  0
  -12.2760  -27.7521   18.7077 H   0  0  0  0  0  0  0  0  0  0  0  0
  -12.7132  -28.5814   16.4223 H   0  0  0  0  0  0  0  0  0  0  0  0
  -15.9369  -26.5404   13.8573 H   0  0  0  0  0  0  0  0  0  0  0  0
  -14.3107  -25.9475   13.4097 H   0  0  0  0  0  0  0  0  0  0  0  0
  -15.1203  -23.8326   12.7256 H   0  0  0  0  0  0  0  0  0  0  0  0
  -16.4819  -24.8532   12.2201 H   0  0  0  0  0  0  0  0  0  0  0  0
  -16.9962  -22.7851   13.8696 H   0  0  0  0  0  0  0  0  0  0  0  0
  -17.6918  -24.3667   14.2752 H   0  0  0  0  0  0  0  0  0  0  0  0
  -15.2222  -23.0531   15.4658 H   0  0  0  0  0  0  0  0  0  0  0  0
  -16.5341  -23.9436   16.2864 H   0  0  0  0  0  0  0  0  0  0  0  0
  -14.5831  -24.2820   17.6582 H   0  0  0  0  0  0  0  0  0  0  0  0
  -11.8565  -26.0052   24.6244 H   0  0  0  0  0  0  0  0  0  0  0  0
   -9.6554  -24.9271   25.5237 H   0  0  0  0  0  0  0  0  0  0  0  0
  -10.9373  -24.0793   27.3043 H   0  0  0  0  0  0  0  0  0  0  0  0
  -12.8753  -24.9234   29.2022 H   0  0  0  0  0  0  0  0  0  0  0  0
  -13.8856  -27.1017   29.9696 H   0  0  0  0  0  0  0  0  0  0  0  0
  -12.8344  -29.0566   28.4023 H   0  0  0  0  0  0  0  0  0  0  0  0
  -10.3760  -28.5882   26.7944 H   0  0  0  0  0  0  0  0  0  0  0  0
  1  2  2  0
  2  3  1  0
  3  4  1  0
  4  5  1  0
  5  6  2  0
  6  7  1  0
  7  8  2  0
  8  9  1  0
  9 10  1  0
 10 11  1  0
 11 12  1  0
 12 13  1  0
 13 14  1  0
  9 15  2  0
  2 16  1  0
 16 17  1  0
 17 18  2  0
 18 19  1  0
 19 20  2  0
 20 21  1  0
 21 22  1  0
 22 23  2  0
 23 24  1  0
 24 25  2  0
 15  5  1  0
 25 17  1  0
 14 10  1  0
 24 20  1  0
  3 26  1  0
  4 27  1  0
  4 28  1  0
  6 29  1  0
  7 30  1  0
 11 31  1  0
 11 32  1  0
 12 33  1  0
 12 34  1  0
 13 35  1  0
 13 36  1  0
 14 37  1  0
 14 38  1  0
 15 39  1  0
 16 40  1  0
 18 41  1  0
 19 42  1  0
 21 43  1  0
 22 44  1  0
 23 45  1  0
 25 46  1  0
M  END
>  <Energy>  (643) 
498.87390929686063

>  <compound_id>  (643) 
5631

>  <target_id>  (643) 
1

>  <reference_id>  (643) 
48

>  <inspiration_ids>  (643) 
[48, 39]

>  <energy_score>  (643) 
547.7366698893326

>  <distance_score>  (643) 
7.236014606850202

>  <path>  (643) 
/opt/xchem-fragalysis-2/maxwin/BulkDock/SCRATCH/511018/C5631-P48/C5631-P48.minimised.mol

>  <scratch_subdir>  (643) 
/opt/xchem-fragalysis-2/maxwin/BulkDock/SCRATCH/511018/C5631-P48

>  <fragmenstein_runtime>  (643) 
10.571857690811157

>  <fragmenstein_outcome>  (643) 
too moved

>  <fragmenstein_mode>  (643) 
expansion

>  <fragmenstein_error>  (643) 


$$$$
C5631-P39
     RDKit          3D

 46 49  0  0  0  0  0  0  0  0999 V2000
  -13.7545  -32.2166   19.8712 O   0  0  0  0  0  0  0  0  0  0  0  0
  -12.8323  -31.5564   19.5484 C   0  0  0  0  0  0  0  0  0  0  0  0
  -12.5687  -30.6845   18.1365 N   0  0  0  0  0  0  0  0  0  0  0  0
  -13.4279  -30.5963   16.8264 C   0  0  0  0  0  0  0  0  0  0  0  0
  -13.0013  -29.6052   15.5201 C   0  0  0  0  0  0  0  0  0  0  0  0
  -12.6555  -28.2501   15.6238 C   0  0  0  0  0  0  0  0  0  0  0  0
  -12.5135  -27.4417   14.4619 C   0  0  0  0  0  0  0  0  0  0  0  0
  -12.6946  -27.8523   13.1840 N   0  0  0  0  0  0  0  0  0  0  0  0
  -13.0173  -29.1507   13.0150 C   0  0  0  0  0  0  0  0  0  0  0  0
  -13.2176  -29.6085   11.7357 N   0  0  0  0  0  0  0  0  0  0  0  0
  -13.3238  -31.0046   11.3499 C   0  0  0  0  0  0  0  0  0  0  0  0
  -13.4827  -30.9386    9.8337 C   0  0  0  0  0  0  0  0  0  0  0  0
  -12.6301  -29.7383    9.4569 C   0  0  0  0  0  0  0  0  0  0  0  0
  -12.8721  -28.7538   10.6021 C   0  0  0  0  0  0  0  0  0  0  0  0
  -13.1828  -30.0152   14.1531 C   0  0  0  0  0  0  0  0  0  0  0  0
  -11.4585  -31.1704   20.3781 N   0  0  0  0  0  0  0  0  0  0  0  0
  -11.0582  -31.4758   21.8103 C   0  0  0  0  0  0  0  0  0  0  0  0
   -9.8065  -30.8307   22.1802 C   0  0  0  0  0  0  0  0  0  0  0  0
   -9.3169  -30.5589   23.4941 C   0  0  0  0  0  0  0  0  0  0  0  0
  -10.1144  -30.9662   24.5428 C   0  0  0  0  0  0  0  0  0  0  0  0
   -9.9222  -30.8264   25.8865 N   0  0  0  0  0  0  0  0  0  0  0  0
  -10.9630  -31.3789   26.5700 C   0  0  0  0  0  0  0  0  0  0  0  0
  -11.8054  -31.9455   25.6406 C   0  0  0  0  0  0  0  0  0  0  0  0
  -11.2892  -31.6943   24.3271 C   0  0  0  0  0  0  0  0  0  0  0  0
  -11.7539  -31.9688   22.9464 C   0  0  0  0  0  0  0  0  0  0  0  0
  -11.6483  -30.2977   18.1426 H   0  0  0  0  0  0  0  0  0  0  0  0
  -13.4385  -31.6194   16.4352 H   0  0  0  0  0  0  0  0  0  0  0  0
  -14.4488  -30.3273   17.1117 H   0  0  0  0  0  0  0  0  0  0  0  0
  -12.5284  -27.7881   16.5994 H   0  0  0  0  0  0  0  0  0  0  0  0
  -12.2467  -26.3919   14.5657 H   0  0  0  0  0  0  0  0  0  0  0  0
  -14.1873  -31.5009   11.8044 H   0  0  0  0  0  0  0  0  0  0  0  0
  -12.4095  -31.5485   11.6148 H   0  0  0  0  0  0  0  0  0  0  0  0
  -13.1646  -31.8600    9.3381 H   0  0  0  0  0  0  0  0  0  0  0  0
  -14.5309  -30.7499    9.5712 H   0  0  0  0  0  0  0  0  0  0  0  0
  -11.5720  -30.0269    9.4315 H   0  0  0  0  0  0  0  0  0  0  0  0
  -12.8917  -29.3177    8.4820 H   0  0  0  0  0  0  0  0  0  0  0  0
  -11.9713  -28.1508   10.7638 H   0  0  0  0  0  0  0  0  0  0  0  0
  -13.7119  -28.0890   10.3711 H   0  0  0  0  0  0  0  0  0  0  0  0
  -13.4970  -31.0418   13.9836 H   0  0  0  0  0  0  0  0  0  0  0  0
  -10.8469  -30.6636   19.7942 H   0  0  0  0  0  0  0  0  0  0  0  0
   -9.1736  -30.4538   21.3803 H   0  0  0  0  0  0  0  0  0  0  0  0
   -8.3559  -30.0849   23.6396 H   0  0  0  0  0  0  0  0  0  0  0  0
   -9.0605  -30.4940   26.2858 H   0  0  0  0  0  0  0  0  0  0  0  0
  -10.9880  -31.4042   27.6498 H   0  0  0  0  0  0  0  0  0  0  0  0
  -12.7067  -32.4991   25.8702 H   0  0  0  0  0  0  0  0  0  0  0  0
  -12.7189  -32.4505   22.8123 H   0  0  0  0  0  0  0  0  0  0  0  0
  1  2  2  0
  2  3  1  0
  3  4  1  0
  4  5  1  0
  5  6  2  0
  6  7  1  0
  7  8  2  0
  8  9  1  0
  9 10  1  0
 10 11  1  0
 11 12  1  0
 12 13  1  0
 13 14  1  0
  9 15  2  0
  2 16  1  0
 16 17  1  0
 17 18  2  0
 18 19  1  0
 19 20  2  0
 20 21  1  0
 21 22  1  0
 22 23  2  0
 23 24  1  0
 24 25  2  0
 15  5  1  0
 25 17  1  0
 14 10  1  0
 24 20  1  0
  3 26  1  0
  4 27  1  0
  4 28  1  0
  6 29  1  0
  7 30  1  0
 11 31  1  0
 11 32  1  0
 12 33  1  0
 12 34  1  0
 13 35  1  0
 13 36  1  0
 14 37  1  0
 14 38  1  0
 15 39  1  0
 16 40  1  0
 18 41  1  0
 19 42  1  0
 21 43  1  0
 22 44  1  0
 23 45  1  0
 25 46  1  0
M  END
>  <Energy>  (644) 
10.994653548839377

>  <compound_id>  (644) 
5631

>  <target_id>  (644) 
1

>  <reference_id>  (644) 
39

>  <inspiration_ids>  (644) 
[48, 39]

>  <energy_score>  (644) 
39.289643011743806

>  <distance_score>  (644) 
9.624154527143126

>  <path>  (644) 
/opt/xchem-fragalysis-2/maxwin/BulkDock/SCRATCH/511018/C5631-P39/C5631-P39.minimised.mol

>  <scratch_subdir>  (644) 
/opt/xchem-fragalysis-2/maxwin/BulkDock/SCRATCH/511018/C5631-P39

>  <fragmenstein_runtime>  (644) 
13.248270988464355

>  <fragmenstein_outcome>  (644) 
too moved

>  <fragmenstein_mode>  (644) 
expansion

>  <fragmenstein_error>  (644) 


$$$$
C5634-P48
     RDKit          3D

 43 46  0  0  0  0  0  0  0  0999 V2000
  -12.1904  -23.1694   26.3971 O   0  0  0  0  0  0  0  0  0  0  0  0
  -12.7252  -24.2011   26.2558 C   0  0  0  0  0  0  0  0  0  0  0  0
  -12.7187  -25.4225   27.1234 N   0  0  0  0  0  0  0  0  0  0  0  0
  -12.1574  -25.6424   28.3715 C   0  0  0  0  0  0  0  0  0  0  0  0
  -11.8007  -24.6056   29.2199 C   0  0  0  0  0  0  0  0  0  0  0  0
  -11.4057  -24.8739   30.5296 C   0  0  0  0  0  0  0  0  0  0  0  0
  -11.2026  -26.2036   30.8871 C   0  0  0  0  0  0  0  0  0  0  0  0
  -10.7231  -26.7399   32.0557 N   0  0  0  0  0  0  0  0  0  0  0  0
  -10.6558  -28.1031   31.9481 C   0  0  0  0  0  0  0  0  0  0  0  0
  -11.1356  -28.4577   30.7092 C   0  0  0  0  0  0  0  0  0  0  0  0
  -11.4836  -27.2627   30.0314 C   0  0  0  0  0  0  0  0  0  0  0  0
  -12.0231  -26.9789   28.7695 C   0  0  0  0  0  0  0  0  0  0  0  0
  -13.5215  -24.7163   25.1279 N   0  0  0  0  0  0  0  0  0  0  0  0
  -13.8040  -24.1384   23.8056 C   0  0  0  0  0  0  0  0  0  0  0  0
  -12.9230  -22.8891   22.7943 C   0  0  0  0  0  0  0  0  0  0  0  0
  -12.5081  -23.5642   21.0007 C   0  0  0  0  0  0  0  0  0  0  0  0
  -13.2062  -25.3579   20.8543 N   0  0  0  0  0  0  0  0  0  0  0  0
  -13.6721  -25.7445   19.4658 C   0  0  0  0  0  0  0  0  0  0  0  0
  -13.6682  -27.0625   18.9703 C   0  0  0  0  0  0  0  0  0  0  0  0
  -13.9951  -27.4172   17.6388 C   0  0  0  0  0  0  0  0  0  0  0  0
  -14.3760  -26.4480   16.7454 C   0  0  0  0  0  0  0  0  0  0  0  0
  -14.3830  -25.1746   17.2423 C   0  0  0  0  0  0  0  0  0  0  0  0
  -14.0099  -24.8336   18.5198 N   0  0  0  0  0  0  0  0  0  0  0  0
  -13.8438  -25.7168   22.7605 C   0  0  0  0  0  0  0  0  0  0  0  0
  -13.2143  -26.1566   26.6657 H   0  0  0  0  0  0  0  0  0  0  0  0
  -11.8945  -23.5675   28.9085 H   0  0  0  0  0  0  0  0  0  0  0  0
  -11.2454  -24.0734   31.2384 H   0  0  0  0  0  0  0  0  0  0  0  0
  -10.4361  -26.2009   32.8622 H   0  0  0  0  0  0  0  0  0  0  0  0
  -10.2827  -28.7034   32.7675 H   0  0  0  0  0  0  0  0  0  0  0  0
  -11.2199  -29.4698   30.3354 H   0  0  0  0  0  0  0  0  0  0  0  0
  -12.2811  -27.7995   28.1107 H   0  0  0  0  0  0  0  0  0  0  0  0
  -13.9016  -25.6065   25.3718 H   0  0  0  0  0  0  0  0  0  0  0  0
  -14.7582  -23.6417   24.0451 H   0  0  0  0  0  0  0  0  0  0  0  0
  -13.4416  -21.9560   22.8780 H   0  0  0  0  0  0  0  0  0  0  0  0
  -11.9564  -22.6273   23.2579 H   0  0  0  0  0  0  0  0  0  0  0  0
  -11.4779  -23.8055   20.9616 H   0  0  0  0  0  0  0  0  0  0  0  0
  -12.7137  -22.8306   20.2511 H   0  0  0  0  0  0  0  0  0  0  0  0
  -13.2889  -27.8821   19.5473 H   0  0  0  0  0  0  0  0  0  0  0  0
  -13.9277  -28.4560   17.3278 H   0  0  0  0  0  0  0  0  0  0  0  0
  -14.6488  -26.6705   15.7229 H   0  0  0  0  0  0  0  0  0  0  0  0
  -14.6904  -24.3398   16.6201 H   0  0  0  0  0  0  0  0  0  0  0  0
  -14.9452  -25.9812   23.0588 H   0  0  0  0  0  0  0  0  0  0  0  0
  -13.8728  -26.7743   23.1010 H   0  0  0  0  0  0  0  0  0  0  0  0
  1  2  2  0
  2  3  1  0
  3  4  1  0
  4  5  2  0
  5  6  1  0
  6  7  2  0
  7  8  1  0
  8  9  1  0
  9 10  2  0
 10 11  1  0
 11 12  2  0
  2 13  1  0
 13 14  1  0
 14 15  1  0
 15 16  1  0
 16 17  1  0
 17 18  1  0
 18 19  2  0
 19 20  1  0
 20 21  2  0
 21 22  1  0
 22 23  2  0
 17 24  1  0
 12  4  1  0
 24 14  1  0
 11  7  1  0
 23 18  1  0
  3 25  1  0
  5 26  1  0
  6 27  1  0
  8 28  1  0
  9 29  1  0
 10 30  1  0
 12 31  1  0
 13 32  1  0
 14 33  1  0
 15 34  1  0
 15 35  1  0
 16 36  1  0
 16 37  1  0
 19 38  1  0
 20 39  1  0
 21 40  1  0
 22 41  1  0
 24 42  1  0
 24 43  1  0
M  END
>  <Energy>  (645) 
277.27421144006496

>  <compound_id>  (645) 
5634

>  <target_id>  (645) 
1

>  <reference_id>  (645) 
48

>  <inspiration_ids>  (645) 
[48, 39]

>  <energy_score>  (645) 
294.85750145728696

>  <distance_score>  (645) 
6.983324515227474

>  <path>  (645) 
/opt/xchem-fragalysis-2/maxwin/BulkDock/SCRATCH/511018/C5634-P48/C5634-P48.minimised.mol

>  <scratch_subdir>  (645) 
/opt/xchem-fragalysis-2/maxwin/BulkDock/SCRATCH/511018/C5634-P48

>  <fragmenstein_runtime>  (645) 
10.067243814468384

>  <fragmenstein_outcome>  (645) 
too moved

>  <fragmenstein_mode>  (645) 
expansion

>  <fragmenstein_error>  (645) 


$$$$
C5634-P39
     RDKit          3D

 43 46  0  0  0  0  0  0  0  0999 V2000
  -11.0684  -32.8741   19.1328 O   0  0  0  0  0  0  0  0  0  0  0  0
  -12.1350  -32.6333   19.5615 C   0  0  0  0  0  0  0  0  0  0  0  0
  -12.5891  -32.4483   20.9900 N   0  0  0  0  0  0  0  0  0  0  0  0
  -11.8524  -32.4182   22.1923 C   0  0  0  0  0  0  0  0  0  0  0  0
  -12.4928  -32.5904   23.4248 C   0  0  0  0  0  0  0  0  0  0  0  0
  -11.8312  -32.3591   24.6518 C   0  0  0  0  0  0  0  0  0  0  0  0
  -10.5242  -31.8637   24.6002 C   0  0  0  0  0  0  0  0  0  0  0  0
   -9.6614  -31.4698   25.5997 N   0  0  0  0  0  0  0  0  0  0  0  0
   -8.4749  -31.0559   25.0554 C   0  0  0  0  0  0  0  0  0  0  0  0
   -8.5672  -31.1690   23.6907 C   0  0  0  0  0  0  0  0  0  0  0  0
   -9.8487  -31.7003   23.3905 C   0  0  0  0  0  0  0  0  0  0  0  0
  -10.5044  -32.0338   22.1811 C   0  0  0  0  0  0  0  0  0  0  0  0
  -13.4159  -32.3214   18.8437 N   0  0  0  0  0  0  0  0  0  0  0  0
  -13.6907  -32.1309   17.4121 C   0  0  0  0  0  0  0  0  0  0  0  0
  -15.1530  -31.8161   17.1049 C   0  0  0  0  0  0  0  0  0  0  0  0
  -15.1000  -31.1799   15.7105 C   0  0  0  0  0  0  0  0  0  0  0  0
  -13.8752  -30.3910   15.7443 N   0  0  0  0  0  0  0  0  0  0  0  0
  -13.4949  -29.6845   14.6116 C   0  0  0  0  0  0  0  0  0  0  0  0
  -12.2578  -29.0425   14.5200 C   0  0  0  0  0  0  0  0  0  0  0  0
  -11.9038  -28.3304   13.3662 C   0  0  0  0  0  0  0  0  0  0  0  0
  -12.7961  -28.2543   12.3107 C   0  0  0  0  0  0  0  0  0  0  0  0
  -14.0094  -28.8914   12.4676 C   0  0  0  0  0  0  0  0  0  0  0  0
  -14.3684  -29.5860   13.5792 N   0  0  0  0  0  0  0  0  0  0  0  0
  -12.9341  -30.9475   16.7270 C   0  0  0  0  0  0  0  0  0  0  0  0
  -13.5815  -32.3353   21.0102 H   0  0  0  0  0  0  0  0  0  0  0  0
  -13.5295  -32.9168   23.4528 H   0  0  0  0  0  0  0  0  0  0  0  0
  -12.3403  -32.5155   25.5969 H   0  0  0  0  0  0  0  0  0  0  0  0
   -9.8522  -31.5218   26.5916 H   0  0  0  0  0  0  0  0  0  0  0  0
   -7.6480  -30.7509   25.6773 H   0  0  0  0  0  0  0  0  0  0  0  0
   -7.7888  -30.9276   22.9777 H   0  0  0  0  0  0  0  0  0  0  0  0
   -9.9749  -31.8719   21.2467 H   0  0  0  0  0  0  0  0  0  0  0  0
  -14.1593  -32.2459   19.5103 H   0  0  0  0  0  0  0  0  0  0  0  0
  -13.3950  -33.0619   16.9126 H   0  0  0  0  0  0  0  0  0  0  0  0
  -15.5558  -31.0974   17.8289 H   0  0  0  0  0  0  0  0  0  0  0  0
  -15.7886  -32.7064   17.1305 H   0  0  0  0  0  0  0  0  0  0  0  0
  -15.0388  -31.9606   14.9425 H   0  0  0  0  0  0  0  0  0  0  0  0
  -15.9888  -30.5649   15.5337 H   0  0  0  0  0  0  0  0  0  0  0  0
  -11.5523  -29.0823   15.3428 H   0  0  0  0  0  0  0  0  0  0  0  0
  -10.9356  -27.8402   13.3065 H   0  0  0  0  0  0  0  0  0  0  0  0
  -12.5566  -27.7135   11.4034 H   0  0  0  0  0  0  0  0  0  0  0  0
  -14.7596  -28.8671   11.6827 H   0  0  0  0  0  0  0  0  0  0  0  0
  -12.0264  -31.3288   16.2470 H   0  0  0  0  0  0  0  0  0  0  0  0
  -12.6722  -30.1712   17.4522 H   0  0  0  0  0  0  0  0  0  0  0  0
  1  2  2  0
  2  3  1  0
  3  4  1  0
  4  5  2  0
  5  6  1  0
  6  7  2  0
  7  8  1  0
  8  9  1  0
  9 10  2  0
 10 11  1  0
 11 12  2  0
  2 13  1  0
 13 14  1  0
 14 15  1  0
 15 16  1  0
 16 17  1  0
 17 18  1  0
 18 19  2  0
 19 20  1  0
 20 21  2  0
 21 22  1  0
 22 23  2  0
 17 24  1  0
 12  4  1  0
 24 14  1  0
 11  7  1  0
 23 18  1  0
  3 25  1  0
  5 26  1  0
  6 27  1  0
  8 28  1  0
  9 29  1  0
 10 30  1  0
 12 31  1  0
 13 32  1  0
 14 33  1  0
 15 34  1  0
 15 35  1  0
 16 36  1  0
 16 37  1  0
 19 38  1  0
 20 39  1  0
 21 40  1  0
 22 41  1  0
 24 42  1  0
 24 43  1  0
M  END
>  <Energy>  (646) 
-29.944659171491125

>  <compound_id>  (646) 
5634

>  <target_id>  (646) 
1

>  <reference_id>  (646) 
39

>  <inspiration_ids>  (646) 
[48, 39]

>  <energy_score>  (646) 
-12.361369154269767

>  <distance_score>  (646) 
9.769186558860264

>  <path>  (646) 
/opt/xchem-fragalysis-2/maxwin/BulkDock/SCRATCH/511018/C5634-P39/C5634-P39.minimised.mol

>  <scratch_subdir>  (646) 
/opt/xchem-fragalysis-2/maxwin/BulkDock/SCRATCH/511018/C5634-P39

>  <fragmenstein_runtime>  (646) 
24.498515367507935

>  <fragmenstein_outcome>  (646) 
too moved

>  <fragmenstein_mode>  (646) 
expansion

>  <fragmenstein_error>  (646) 


$$$$
C5635-P48
     RDKit          3D

 46 49  0  0  0  0  0  0  0  0999 V2000
  -19.0006  -25.4759   19.5229 O   0  0  0  0  0  0  0  0  0  0  0  0
  -18.2211  -26.3501   19.6142 C   0  0  0  0  0  0  0  0  0  0  0  0
  -17.5017  -27.1276   18.5380 N   0  0  0  0  0  0  0  0  0  0  0  0
  -17.6363  -27.0876   17.0813 C   0  0  0  0  0  0  0  0  0  0  0  0
  -16.5004  -26.5012   16.2483 C   0  0  0  0  0  0  0  0  0  0  0  0
  -15.1922  -27.0001   16.3811 C   0  0  0  0  0  0  0  0  0  0  0  0
  -14.1898  -26.6112   15.4938 C   0  0  0  0  0  0  0  0  0  0  0  0
  -14.5240  -25.7423   14.4771 C   0  0  0  0  0  0  0  0  0  0  0  0
  -15.7633  -25.2427   14.3088 N   0  0  0  0  0  0  0  0  0  0  0  0
  -16.7435  -25.5996   15.1831 C   0  0  0  0  0  0  0  0  0  0  0  0
  -18.0224  -25.0661   14.9899 N   0  0  0  0  0  0  0  0  0  0  0  0
  -18.4395  -24.0804   16.0127 C   0  0  0  0  0  0  0  0  0  0  0  0
  -19.0536  -22.9225   15.2230 C   0  0  0  0  0  0  0  0  0  0  0  0
  -19.4718  -23.5698   13.9156 C   0  0  0  0  0  0  0  0  0  0  0  0
  -18.3067  -24.5168   13.6583 C   0  0  0  0  0  0  0  0  0  0  0  0
  -17.6514  -27.0250   20.8459 N   0  0  0  0  0  0  0  0  0  0  0  0
  -17.8227  -26.7341   22.2204 C   0  0  0  0  0  0  0  0  0  0  0  0
  -18.4055  -25.5652   22.6989 C   0  0  0  0  0  0  0  0  0  0  0  0
  -18.2713  -25.1570   24.0436 C   0  0  0  0  0  0  0  0  0  0  0  0
  -17.5773  -25.9998   24.9162 C   0  0  0  0  0  0  0  0  0  0  0  0
  -17.2736  -25.8610   26.2488 N   0  0  0  0  0  0  0  0  0  0  0  0
  -16.6343  -26.9841   26.7108 C   0  0  0  0  0  0  0  0  0  0  0  0
  -16.5224  -27.8622   25.6594 C   0  0  0  0  0  0  0  0  0  0  0  0
  -17.0967  -27.2405   24.5123 C   0  0  0  0  0  0  0  0  0  0  0  0
  -17.2649  -27.6125   23.1563 C   0  0  0  0  0  0  0  0  0  0  0  0
  -16.8443  -27.7488   18.9615 H   0  0  0  0  0  0  0  0  0  0  0  0
  -17.7607  -28.1310   16.7659 H   0  0  0  0  0  0  0  0  0  0  0  0
  -18.5912  -26.6009   16.8804 H   0  0  0  0  0  0  0  0  0  0  0  0
  -14.9586  -27.7208   17.1590 H   0  0  0  0  0  0  0  0  0  0  0  0
  -13.1793  -26.9935   15.5843 H   0  0  0  0  0  0  0  0  0  0  0  0
  -13.7882  -25.4143   13.7492 H   0  0  0  0  0  0  0  0  0  0  0  0
  -19.2072  -24.5248   16.6545 H   0  0  0  0  0  0  0  0  0  0  0  0
  -17.6182  -23.7279   16.6467 H   0  0  0  0  0  0  0  0  0  0  0  0
  -19.8864  -22.4509   15.7520 H   0  0  0  0  0  0  0  0  0  0  0  0
  -18.2960  -22.1552   15.0276 H   0  0  0  0  0  0  0  0  0  0  0  0
  -19.6120  -22.8457   13.1084 H   0  0  0  0  0  0  0  0  0  0  0  0
  -20.4039  -24.1315   14.0489 H   0  0  0  0  0  0  0  0  0  0  0  0
  -17.4715  -23.9375   13.2451 H   0  0  0  0  0  0  0  0  0  0  0  0
  -18.5784  -25.3071   12.9514 H   0  0  0  0  0  0  0  0  0  0  0  0
  -17.0719  -27.7898   20.5669 H   0  0  0  0  0  0  0  0  0  0  0  0
  -18.9241  -24.8990   22.0078 H   0  0  0  0  0  0  0  0  0  0  0  0
  -18.6932  -24.2113   24.3720 H   0  0  0  0  0  0  0  0  0  0  0  0
  -17.4838  -25.0398   26.8016 H   0  0  0  0  0  0  0  0  0  0  0  0
  -16.3504  -27.0699   27.7509 H   0  0  0  0  0  0  0  0  0  0  0  0
  -16.0901  -28.8521   25.7113 H   0  0  0  0  0  0  0  0  0  0  0  0
  -16.9541  -28.5950   22.8260 H   0  0  0  0  0  0  0  0  0  0  0  0
  1  2  2  0
  2  3  1  0
  3  4  1  0
  4  5  1  0
  5  6  2  0
  6  7  1  0
  7  8  2  0
  8  9  1  0
  9 10  2  0
 10 11  1  0
 11 12  1  0
 12 13  1  0
 13 14  1  0
 14 15  1  0
  2 16  1  0
 16 17  1  0
 17 18  2  0
 18 19  1  0
 19 20  2  0
 20 21  1  0
 21 22  1  0
 22 23  2  0
 23 24  1  0
 24 25  2  0
 10  5  1  0
 15 11  1  0
 25 17  1  0
 24 20  1  0
  3 26  1  0
  4 27  1  0
  4 28  1  0
  6 29  1  0
  7 30  1  0
  8 31  1  0
 12 32  1  0
 12 33  1  0
 13 34  1  0
 13 35  1  0
 14 36  1  0
 14 37  1  0
 15 38  1  0
 15 39  1  0
 16 40  1  0
 18 41  1  0
 19 42  1  0
 21 43  1  0
 22 44  1  0
 23 45  1  0
 25 46  1  0
M  END
>  <Energy>  (647) 
-44.282595550211518

>  <compound_id>  (647) 
5635

>  <target_id>  (647) 
1

>  <reference_id>  (647) 
48

>  <inspiration_ids>  (647) 
[48, 39]

>  <energy_score>  (647) 
-27.248120173552138

>  <distance_score>  (647) 
9.384701597676013

>  <path>  (647) 
/opt/xchem-fragalysis-2/maxwin/BulkDock/SCRATCH/511018/C5635-P48/C5635-P48.minimised.mol

>  <scratch_subdir>  (647) 
/opt/xchem-fragalysis-2/maxwin/BulkDock/SCRATCH/511018/C5635-P48

>  <fragmenstein_runtime>  (647) 
10.975719928741455

>  <fragmenstein_outcome>  (647) 
too moved

>  <fragmenstein_mode>  (647) 
expansion

>  <fragmenstein_error>  (647) 


$$$$
C5635-P39
     RDKit          3D

 46 49  0  0  0  0  0  0  0  0999 V2000
  -14.6833  -25.9935   21.1072 O   0  0  0  0  0  0  0  0  0  0  0  0
  -14.1947  -25.0088   20.7153 C   0  0  0  0  0  0  0  0  0  0  0  0
  -13.6289  -24.7529   19.2192 N   0  0  0  0  0  0  0  0  0  0  0  0
  -13.6806  -25.6705   17.9194 C   0  0  0  0  0  0  0  0  0  0  0  0
  -13.7579  -25.4364   16.4031 C   0  0  0  0  0  0  0  0  0  0  0  0
  -12.6744  -25.9172   15.6109 C   0  0  0  0  0  0  0  0  0  0  0  0
  -12.6973  -25.8617   14.2179 C   0  0  0  0  0  0  0  0  0  0  0  0
  -13.8227  -25.3414   13.6254 C   0  0  0  0  0  0  0  0  0  0  0  0
  -14.9166  -24.9698   14.3216 N   0  0  0  0  0  0  0  0  0  0  0  0
  -14.9125  -25.0783   15.6828 C   0  0  0  0  0  0  0  0  0  0  0  0
  -16.1630  -25.0783   16.3442 N   0  0  0  0  0  0  0  0  0  0  0  0
  -16.7058  -26.4593   16.3323 C   0  0  0  0  0  0  0  0  0  0  0  0
  -17.7771  -26.4637   15.2520 C   0  0  0  0  0  0  0  0  0  0  0  0
  -18.3827  -25.0873   15.4071 C   0  0  0  0  0  0  0  0  0  0  0  0
  -17.1812  -24.2000   15.7257 C   0  0  0  0  0  0  0  0  0  0  0  0
  -13.8897  -23.5876   21.7796 N   0  0  0  0  0  0  0  0  0  0  0  0
  -14.0677  -23.4157   23.2853 C   0  0  0  0  0  0  0  0  0  0  0  0
  -13.0668  -22.6665   23.8944 C   0  0  0  0  0  0  0  0  0  0  0  0
  -12.4699  -23.1364   25.0990 C   0  0  0  0  0  0  0  0  0  0  0  0
  -12.9549  -24.2528   25.7733 C   0  0  0  0  0  0  0  0  0  0  0  0
  -12.5274  -24.8573   26.9278 N   0  0  0  0  0  0  0  0  0  0  0  0
  -13.2940  -25.9640   27.1712 C   0  0  0  0  0  0  0  0  0  0  0  0
  -14.2666  -26.0268   26.1963 C   0  0  0  0  0  0  0  0  0  0  0  0
  -14.0550  -24.9422   25.3024 C   0  0  0  0  0  0  0  0  0  0  0  0
  -14.6100  -24.5190   24.0656 C   0  0  0  0  0  0  0  0  0  0  0  0
  -13.1882  -23.8514   19.1850 H   0  0  0  0  0  0  0  0  0  0  0  0
  -12.8783  -26.3953   18.0095 H   0  0  0  0  0  0  0  0  0  0  0  0
  -14.5715  -26.2696   18.1009 H   0  0  0  0  0  0  0  0  0  0  0  0
  -11.7830  -26.3205   16.0910 H   0  0  0  0  0  0  0  0  0  0  0  0
  -11.8491  -26.1885   13.6271 H   0  0  0  0  0  0  0  0  0  0  0  0
  -13.8963  -25.2329   12.5480 H   0  0  0  0  0  0  0  0  0  0  0  0
  -17.1640  -26.6540   17.3096 H   0  0  0  0  0  0  0  0  0  0  0  0
  -15.9612  -27.2468   16.1625 H   0  0  0  0  0  0  0  0  0  0  0  0
  -17.3259  -26.5731   14.2592 H   0  0  0  0  0  0  0  0  0  0  0  0
  -18.5070  -27.2661   15.3895 H   0  0  0  0  0  0  0  0  0  0  0  0
  -19.0871  -25.0789   16.2479 H   0  0  0  0  0  0  0  0  0  0  0  0
  -18.9207  -24.7557   14.5145 H   0  0  0  0  0  0  0  0  0  0  0  0
  -17.4891  -23.4476   16.4564 H   0  0  0  0  0  0  0  0  0  0  0  0
  -16.8421  -23.6681   14.8300 H   0  0  0  0  0  0  0  0  0  0  0  0
  -13.3831  -22.8771   21.2517 H   0  0  0  0  0  0  0  0  0  0  0  0
  -12.5950  -21.8323   23.3818 H   0  0  0  0  0  0  0  0  0  0  0  0
  -11.6982  -22.5684   25.5804 H   0  0  0  0  0  0  0  0  0  0  0  0
  -11.7340  -24.5579   27.4788 H   0  0  0  0  0  0  0  0  0  0  0  0
  -13.0616  -26.6173   28.0000 H   0  0  0  0  0  0  0  0  0  0  0  0
  -15.0185  -26.7986   26.1023 H   0  0  0  0  0  0  0  0  0  0  0  0
  -15.2948  -25.2423   23.6313 H   0  0  0  0  0  0  0  0  0  0  0  0
  1  2  2  0
  2  3  1  0
  3  4  1  0
  4  5  1  0
  5  6  2  0
  6  7  1  0
  7  8  2  0
  8  9  1  0
  9 10  2  0
 10 11  1  0
 11 12  1  0
 12 13  1  0
 13 14  1  0
 14 15  1  0
  2 16  1  0
 16 17  1  0
 17 18  2  0
 18 19  1  0
 19 20  2  0
 20 21  1  0
 21 22  1  0
 22 23  2  0
 23 24  1  0
 24 25  2  0
 10  5  1  0
 15 11  1  0
 25 17  1  0
 24 20  1  0
  3 26  1  0
  4 27  1  0
  4 28  1  0
  6 29  1  0
  7 30  1  0
  8 31  1  0
 12 32  1  0
 12 33  1  0
 13 34  1  0
 13 35  1  0
 14 36  1  0
 14 37  1  0
 15 38  1  0
 15 39  1  0
 16 40  1  0
 18 41  1  0
 19 42  1  0
 21 43  1  0
 22 44  1  0
 23 45  1  0
 25 46  1  0
M  END
>  <Energy>  (648) 
60.102300382056342

>  <compound_id>  (648) 
5635

>  <target_id>  (648) 
1

>  <reference_id>  (648) 
39

>  <inspiration_ids>  (648) 
[48, 39]

>  <energy_score>  (648) 
77.13677575872339

>  <distance_score>  (648) 
7.27905185457337

>  <path>  (648) 
/opt/xchem-fragalysis-2/maxwin/BulkDock/SCRATCH/511018/C5635-P39/C5635-P39.minimised.mol

>  <scratch_subdir>  (648) 
/opt/xchem-fragalysis-2/maxwin/BulkDock/SCRATCH/511018/C5635-P39

>  <fragmenstein_runtime>  (648) 
10.739794969558716

>  <fragmenstein_outcome>  (648) 
too moved

>  <fragmenstein_mode>  (648) 
expansion

>  <fragmenstein_error>  (648) 


$$$$
C5636-P48
     RDKit          3D

 37 40  0  0  0  0  0  0  0  0999 V2000
  -10.2636  -30.1548   21.5460 C   0  0  0  0  0  0  0  0  0  0  0  0
  -10.5557  -28.1895   21.5470 C   0  0  0  0  0  0  0  0  0  0  0  0
  -12.1283  -28.5132   19.5417 S   0  0  0  0  0  0  0  0  0  0  0  0
  -12.3801  -27.2906   18.1888 C   0  0  0  0  0  0  0  0  0  0  0  0
  -11.6575  -27.3815   16.9927 C   0  0  0  0  0  0  0  0  0  0  0  0
  -12.1186  -26.7773   15.8162 C   0  0  0  0  0  0  0  0  0  0  0  0
  -13.3325  -26.1204   15.8321 C   0  0  0  0  0  0  0  0  0  0  0  0
  -14.0053  -26.0670   17.0400 C   0  0  0  0  0  0  0  0  0  0  0  0
  -13.5653  -26.6282   18.2026 N   0  0  0  0  0  0  0  0  0  0  0  0
  -10.7774  -27.4426   23.5548 C   0  0  0  0  0  0  0  0  0  0  0  0
  -10.1244  -27.2142   24.8137 N   0  0  0  0  0  0  0  0  0  0  0  0
  -11.0572  -26.7643   25.8922 C   0  0  0  0  0  0  0  0  0  0  0  0
  -10.9390  -26.1077   27.1732 C   0  0  0  0  0  0  0  0  0  0  0  0
  -11.2364  -26.8406   28.3395 C   0  0  0  0  0  0  0  0  0  0  0  0
  -11.5376  -26.2074   29.5466 C   0  0  0  0  0  0  0  0  0  0  0  0
  -11.5929  -24.8160   29.5232 C   0  0  0  0  0  0  0  0  0  0  0  0
  -11.9562  -23.9302   30.5105 N   0  0  0  0  0  0  0  0  0  0  0  0
  -11.8981  -22.6454   30.0353 C   0  0  0  0  0  0  0  0  0  0  0  0
  -11.4994  -22.7016   28.7198 C   0  0  0  0  0  0  0  0  0  0  0  0
  -11.3001  -24.0625   28.3872 C   0  0  0  0  0  0  0  0  0  0  0  0
  -10.9473  -24.7128   27.1987 C   0  0  0  0  0  0  0  0  0  0  0  0
  -12.3002  -27.0219   25.5987 N   0  0  0  0  0  0  0  0  0  0  0  0
  -12.1708  -27.8556   24.5656 O   0  0  0  0  0  0  0  0  0  0  0  0
   -9.2337  -30.3935   21.8692 H   0  0  0  0  0  0  0  0  0  0  0  0
  -10.9773  -30.7732   22.1042 H   0  0  0  0  0  0  0  0  0  0  0  0
  -10.4302  -30.6053   20.5680 H   0  0  0  0  0  0  0  0  0  0  0  0
  -10.3337  -27.3372   20.9211 H   0  0  0  0  0  0  0  0  0  0  0  0
  -10.7696  -27.9832   16.9105 H   0  0  0  0  0  0  0  0  0  0  0  0
  -11.5467  -26.8694   14.8969 H   0  0  0  0  0  0  0  0  0  0  0  0
  -13.7438  -25.6651   14.9391 H   0  0  0  0  0  0  0  0  0  0  0  0
  -14.9656  -25.5628   17.1163 H   0  0  0  0  0  0  0  0  0  0  0  0
  -11.2851  -27.9283   28.2981 H   0  0  0  0  0  0  0  0  0  0  0  0
  -11.7821  -26.7765   30.4373 H   0  0  0  0  0  0  0  0  0  0  0  0
  -12.2476  -24.1895   31.4421 H   0  0  0  0  0  0  0  0  0  0  0  0
  -12.1787  -21.8136   30.6637 H   0  0  0  0  0  0  0  0  0  0  0  0
  -11.4079  -21.8590   28.0532 H   0  0  0  0  0  0  0  0  0  0  0  0
  -10.7949  -24.1370   26.2943 H   0  0  0  0  0  0  0  0  0  0  0  0
  1  2  1  0
  2  3  1  0
  3  4  1  0
  4  5  2  0
  5  6  1  0
  6  7  2  0
  7  8  1  0
  8  9  2  0
  2 10  1  0
 10 11  2  0
 11 12  1  0
 12 13  1  0
 13 14  2  0
 14 15  1  0
 15 16  2  0
 16 17  1  0
 17 18  1  0
 18 19  2  0
 19 20  1  0
 20 21  2  0
 12 22  2  0
 22 23  1  0
  9  4  1  0
 23 10  1  0
 21 13  1  0
 20 16  1  0
  1 24  1  0
  1 25  1  0
  1 26  1  0
  2 27  1  0
  5 28  1  0
  6 29  1  0
  7 30  1  0
  8 31  1  0
 14 32  1  0
 15 33  1  0
 17 34  1  0
 18 35  1  0
 19 36  1  0
 21 37  1  0
M  END
>  <Energy>  (649) 
498.53563603964966

>  <compound_id>  (649) 
5636

>  <target_id>  (649) 
1

>  <reference_id>  (649) 
48

>  <inspiration_ids>  (649) 
[48, 39]

>  <energy_score>  (649) 
408.2901581533124

>  <distance_score>  (649) 
6.511316843083134

>  <path>  (649) 
/opt/xchem-fragalysis-2/maxwin/BulkDock/SCRATCH/511018/C5636-P48/C5636-P48.minimised.mol

>  <scratch_subdir>  (649) 
/opt/xchem-fragalysis-2/maxwin/BulkDock/SCRATCH/511018/C5636-P48

>  <fragmenstein_runtime>  (649) 
6.746417760848999

>  <fragmenstein_outcome>  (649) 
too moved

>  <fragmenstein_mode>  (649) 
expansion

>  <fragmenstein_error>  (649) 


$$$$
C5636-P39
     RDKit          3D

 37 40  0  0  0  0  0  0  0  0999 V2000
  -15.2084  -22.7737   23.5908 C   0  0  0  0  0  0  0  0  0  0  0  0
  -13.9782  -23.3540   22.2990 C   0  0  0  0  0  0  0  0  0  0  0  0
  -13.8149  -24.7898   20.3292 S   0  0  0  0  0  0  0  0  0  0  0  0
  -13.7509  -24.9562   18.2380 C   0  0  0  0  0  0  0  0  0  0  0  0
  -13.3981  -26.1801   17.5922 C   0  0  0  0  0  0  0  0  0  0  0  0
  -13.6517  -26.4556   16.2328 C   0  0  0  0  0  0  0  0  0  0  0  0
  -14.3536  -25.5474   15.4909 C   0  0  0  0  0  0  0  0  0  0  0  0
  -14.6907  -24.3853   16.1445 C   0  0  0  0  0  0  0  0  0  0  0  0
  -14.3487  -24.0377   17.4399 N   0  0  0  0  0  0  0  0  0  0  0  0
  -12.8396  -22.9784   23.5008 C   0  0  0  0  0  0  0  0  0  0  0  0
  -13.1351  -23.3242   24.7630 N   0  0  0  0  0  0  0  0  0  0  0  0
  -11.9642  -23.5897   25.3638 C   0  0  0  0  0  0  0  0  0  0  0  0
  -11.8653  -23.9811   26.7482 C   0  0  0  0  0  0  0  0  0  0  0  0
  -11.7433  -23.0121   27.7526 C   0  0  0  0  0  0  0  0  0  0  0  0
  -11.6869  -23.3563   29.1010 C   0  0  0  0  0  0  0  0  0  0  0  0
  -11.6758  -24.7177   29.3926 C   0  0  0  0  0  0  0  0  0  0  0  0
  -11.5357  -25.3647   30.5970 N   0  0  0  0  0  0  0  0  0  0  0  0
  -11.5245  -26.7192   30.3960 C   0  0  0  0  0  0  0  0  0  0  0  0
  -11.7779  -26.9498   29.0673 C   0  0  0  0  0  0  0  0  0  0  0  0
  -11.7987  -25.7017   28.4146 C   0  0  0  0  0  0  0  0  0  0  0  0
  -11.9150  -25.3359   27.0705 C   0  0  0  0  0  0  0  0  0  0  0  0
  -10.9834  -23.6823   24.4670 N   0  0  0  0  0  0  0  0  0  0  0  0
  -11.4961  -22.9337   23.3215 O   0  0  0  0  0  0  0  0  0  0  0  0
  -16.2362  -22.4592   23.3271 H   0  0  0  0  0  0  0  0  0  0  0  0
  -15.3246  -23.5620   24.3506 H   0  0  0  0  0  0  0  0  0  0  0  0
  -14.8165  -21.8575   24.0505 H   0  0  0  0  0  0  0  0  0  0  0  0
  -14.1367  -24.3545   22.7631 H   0  0  0  0  0  0  0  0  0  0  0  0
  -12.8544  -26.9775   18.0584 H   0  0  0  0  0  0  0  0  0  0  0  0
  -13.3236  -27.3956   15.7981 H   0  0  0  0  0  0  0  0  0  0  0  0
  -14.6263  -25.7246   14.4589 H   0  0  0  0  0  0  0  0  0  0  0  0
  -15.2838  -23.6558   15.6088 H   0  0  0  0  0  0  0  0  0  0  0  0
  -11.6744  -21.9619   27.4808 H   0  0  0  0  0  0  0  0  0  0  0  0
  -11.6037  -22.6011   29.8748 H   0  0  0  0  0  0  0  0  0  0  0  0
  -11.4255  -24.9069   31.4924 H   0  0  0  0  0  0  0  0  0  0  0  0
  -11.3562  -27.3955   31.2219 H   0  0  0  0  0  0  0  0  0  0  0  0
  -11.8882  -27.9085   28.5865 H   0  0  0  0  0  0  0  0  0  0  0  0
  -12.0129  -26.0935   26.2984 H   0  0  0  0  0  0  0  0  0  0  0  0
  1  2  1  0
  2  3  1  0
  3  4  1  0
  4  5  2  0
  5  6  1  0
  6  7  2  0
  7  8  1  0
  8  9  2  0
  2 10  1  0
 10 11  2  0
 11 12  1  0
 12 13  1  0
 13 14  2  0
 14 15  1  0
 15 16  2  0
 16 17  1  0
 17 18  1  0
 18 19  2  0
 19 20  1  0
 20 21  2  0
 12 22  2  0
 22 23  1  0
  9  4  1  0
 23 10  1  0
 21 13  1  0
 20 16  1  0
  1 24  1  0
  1 25  1  0
  1 26  1  0
  2 27  1  0
  5 28  1  0
  6 29  1  0
  7 30  1  0
  8 31  1  0
 14 32  1  0
 15 33  1  0
 17 34  1  0
 18 35  1  0
 19 36  1  0
 21 37  1  0
M  END
>  <Energy>  (650) 
340.58890778430276

>  <compound_id>  (650) 
5636

>  <target_id>  (650) 
1

>  <reference_id>  (650) 
39

>  <inspiration_ids>  (650) 
[48, 39]

>  <energy_score>  (650) 
250.34342989797005

>  <distance_score>  (650) 
6.47667641801712

>  <path>  (650) 
/opt/xchem-fragalysis-2/maxwin/BulkDock/SCRATCH/511018/C5636-P39/C5636-P39.minimised.mol

>  <scratch_subdir>  (650) 
/opt/xchem-fragalysis-2/maxwin/BulkDock/SCRATCH/511018/C5636-P39

>  <fragmenstein_runtime>  (650) 
12.204561710357666

>  <fragmenstein_outcome>  (650) 
too moved

>  <fragmenstein_mode>  (650) 
expansion

>  <fragmenstein_error>  (650) 


$$$$
C5639-P48
     RDKit          3D

 40 42  0  0  0  0  0  0  0  0999 V2000
  -18.1255  -25.1506   15.6302 C   0  0  0  0  0  0  0  0  0  0  0  0
  -17.5996  -24.4393   16.8647 C   0  0  0  0  0  0  0  0  0  0  0  0
  -18.6284  -24.7953   18.3282 S   0  0  0  0  0  0  0  0  0  0  0  0
  -17.7666  -26.2089   19.0013 C   0  0  0  0  0  0  0  0  0  0  0  0
  -17.7616  -26.3886   20.3989 C   0  0  0  0  0  0  0  0  0  0  0  0
  -17.1396  -27.5018   20.9790 C   0  0  0  0  0  0  0  0  0  0  0  0
  -17.1411  -27.7307   22.5196 C   0  0  0  0  0  0  0  0  0  0  0  0
  -16.1348  -26.9806   23.3357 N   0  0  0  0  0  0  0  0  0  0  0  0
  -16.1033  -27.3311   24.7732 C   0  0  0  0  0  0  0  0  0  0  0  0
  -14.8322  -26.8928   25.5103 C   0  0  0  0  0  0  0  0  0  0  0  0
  -14.2599  -25.6325   25.3118 C   0  0  0  0  0  0  0  0  0  0  0  0
  -13.1567  -25.1749   26.0609 C   0  0  0  0  0  0  0  0  0  0  0  0
  -12.6307  -26.0224   27.0314 C   0  0  0  0  0  0  0  0  0  0  0  0
  -11.6320  -25.8037   27.9509 N   0  0  0  0  0  0  0  0  0  0  0  0
  -11.5076  -26.9008   28.7600 C   0  0  0  0  0  0  0  0  0  0  0  0
  -12.4207  -27.8439   28.3476 C   0  0  0  0  0  0  0  0  0  0  0  0
  -13.1625  -27.2858   27.2738 C   0  0  0  0  0  0  0  0  0  0  0  0
  -14.2748  -27.7157   26.5126 C   0  0  0  0  0  0  0  0  0  0  0  0
  -16.6218  -28.4340   20.0628 C   0  0  0  0  0  0  0  0  0  0  0  0
  -16.6339  -28.1680   18.6888 C   0  0  0  0  0  0  0  0  0  0  0  0
  -17.1824  -27.0694   18.1414 N   0  0  0  0  0  0  0  0  0  0  0  0
  -18.0981  -26.2391   15.7376 H   0  0  0  0  0  0  0  0  0  0  0  0
  -17.5102  -24.8900   14.7626 H   0  0  0  0  0  0  0  0  0  0  0  0
  -19.1549  -24.8515   15.4051 H   0  0  0  0  0  0  0  0  0  0  0  0
  -16.5506  -24.6914   17.0504 H   0  0  0  0  0  0  0  0  0  0  0  0
  -17.6413  -23.3581   16.6952 H   0  0  0  0  0  0  0  0  0  0  0  0
  -18.2445  -25.6516   21.0366 H   0  0  0  0  0  0  0  0  0  0  0  0
  -16.9998  -28.8059   22.6864 H   0  0  0  0  0  0  0  0  0  0  0  0
  -18.1448  -27.4853   22.8878 H   0  0  0  0  0  0  0  0  0  0  0  0
  -15.2160  -27.1286   22.9399 H   0  0  0  0  0  0  0  0  0  0  0  0
  -16.9661  -26.8797   25.2759 H   0  0  0  0  0  0  0  0  0  0  0  0
  -16.1891  -28.4200   24.8707 H   0  0  0  0  0  0  0  0  0  0  0  0
  -14.7261  -24.9362   24.6168 H   0  0  0  0  0  0  0  0  0  0  0  0
  -12.8097  -24.1478   25.9574 H   0  0  0  0  0  0  0  0  0  0  0  0
  -11.1056  -24.9430   28.0430 H   0  0  0  0  0  0  0  0  0  0  0  0
  -10.7976  -26.9111   29.5761 H   0  0  0  0  0  0  0  0  0  0  0  0
  -12.5731  -28.8117   28.8091 H   0  0  0  0  0  0  0  0  0  0  0  0
  -14.7219  -28.6818   26.7380 H   0  0  0  0  0  0  0  0  0  0  0  0
  -16.2180  -29.3811   20.4033 H   0  0  0  0  0  0  0  0  0  0  0  0
  -16.2094  -28.8744   17.9808 H   0  0  0  0  0  0  0  0  0  0  0  0
  1  2  1  0
  2  3  1  0
  3  4  1  0
  4  5  2  0
  5  6  1  0
  6  7  1  0
  7  8  1  0
  8  9  1  0
  9 10  1  0
 10 11  2  0
 11 12  1  0
 12 13  2  0
 13 14  1  0
 14 15  1  0
 15 16  2  0
 16 17  1  0
 17 18  2  0
  6 19  2  0
 19 20  1  0
 20 21  2  0
 21  4  1  0
 18 10  1  0
 17 13  1  0
  1 22  1  0
  1 23  1  0
  1 24  1  0
  2 25  1  0
  2 26  1  0
  5 27  1  0
  7 28  1  0
  7 29  1  0
  8 30  1  0
  9 31  1  0
  9 32  1  0
 11 33  1  0
 12 34  1  0
 14 35  1  0
 15 36  1  0
 16 37  1  0
 18 38  1  0
 19 39  1  0
 20 40  1  0
M  END
>  <Energy>  (651) 
15.664726451031857

>  <compound_id>  (651) 
5639

>  <target_id>  (651) 
1

>  <reference_id>  (651) 
48

>  <inspiration_ids>  (651) 
[48, 39]

>  <energy_score>  (651) 
-26.189556521077805

>  <distance_score>  (651) 
9.091893771453572

>  <path>  (651) 
/opt/xchem-fragalysis-2/maxwin/BulkDock/SCRATCH/511018/C5639-P48/C5639-P48.minimised.mol

>  <scratch_subdir>  (651) 
/opt/xchem-fragalysis-2/maxwin/BulkDock/SCRATCH/511018/C5639-P48

>  <fragmenstein_runtime>  (651) 
8.013309240341187

>  <fragmenstein_outcome>  (651) 
too moved

>  <fragmenstein_mode>  (651) 
expansion

>  <fragmenstein_error>  (651) 


$$$$
C5639-P39
     RDKit          3D

 40 42  0  0  0  0  0  0  0  0999 V2000
   -6.8075  -34.6792   17.5030 C   0  0  0  0  0  0  0  0  0  0  0  0
   -7.8577  -33.9927   18.3593 C   0  0  0  0  0  0  0  0  0  0  0  0
   -7.1044  -33.4086   19.9073 S   0  0  0  0  0  0  0  0  0  0  0  0
   -8.5113  -32.6084   20.6850 C   0  0  0  0  0  0  0  0  0  0  0  0
   -8.2664  -31.8452   21.8445 C   0  0  0  0  0  0  0  0  0  0  0  0
   -9.3297  -31.3759   22.6282 C   0  0  0  0  0  0  0  0  0  0  0  0
   -9.0533  -30.6743   23.9937 C   0  0  0  0  0  0  0  0  0  0  0  0
   -9.9927  -29.6036   24.3847 N   0  0  0  0  0  0  0  0  0  0  0  0
   -9.7587  -28.7686   25.5499 C   0  0  0  0  0  0  0  0  0  0  0  0
  -10.4854  -27.3431   25.9403 C   0  0  0  0  0  0  0  0  0  0  0  0
  -11.5136  -26.7098   25.2387 C   0  0  0  0  0  0  0  0  0  0  0  0
  -12.2031  -25.5493   25.6730 C   0  0  0  0  0  0  0  0  0  0  0  0
  -11.7730  -24.9231   26.8275 C   0  0  0  0  0  0  0  0  0  0  0  0
  -12.1349  -23.7280   27.3934 N   0  0  0  0  0  0  0  0  0  0  0  0
  -11.5119  -23.5868   28.6027 C   0  0  0  0  0  0  0  0  0  0  0  0
  -10.6692  -24.6649   28.7660 C   0  0  0  0  0  0  0  0  0  0  0  0
  -10.7874  -25.4785   27.6156 C   0  0  0  0  0  0  0  0  0  0  0  0
  -10.1477  -26.6495   27.1512 C   0  0  0  0  0  0  0  0  0  0  0  0
  -10.5984  -31.7593   22.1745 C   0  0  0  0  0  0  0  0  0  0  0  0
  -10.7683  -32.4066   20.9495 C   0  0  0  0  0  0  0  0  0  0  0  0
   -9.7528  -32.8342   20.1787 N   0  0  0  0  0  0  0  0  0  0  0  0
   -7.2604  -35.0310   16.5701 H   0  0  0  0  0  0  0  0  0  0  0  0
   -6.3796  -35.5499   18.0115 H   0  0  0  0  0  0  0  0  0  0  0  0
   -5.9942  -33.9949   17.2378 H   0  0  0  0  0  0  0  0  0  0  0  0
   -8.6630  -34.6994   18.5832 H   0  0  0  0  0  0  0  0  0  0  0  0
   -8.2769  -33.1450   17.8091 H   0  0  0  0  0  0  0  0  0  0  0  0
   -7.2404  -31.6800   22.1628 H   0  0  0  0  0  0  0  0  0  0  0  0
   -8.0438  -30.2510   23.9454 H   0  0  0  0  0  0  0  0  0  0  0  0
   -9.0542  -31.4530   24.7650 H   0  0  0  0  0  0  0  0  0  0  0  0
  -10.3168  -29.1045   23.5614 H   0  0  0  0  0  0  0  0  0  0  0  0
  -10.1442  -29.5597   26.1910 H   0  0  0  0  0  0  0  0  0  0  0  0
   -8.6912  -28.6456   25.7074 H   0  0  0  0  0  0  0  0  0  0  0  0
  -11.8959  -27.1702   24.3410 H   0  0  0  0  0  0  0  0  0  0  0  0
  -13.0599  -25.1653   25.1345 H   0  0  0  0  0  0  0  0  0  0  0  0
  -12.7291  -23.0406   26.9461 H   0  0  0  0  0  0  0  0  0  0  0  0
  -11.7004  -22.7272   29.2314 H   0  0  0  0  0  0  0  0  0  0  0  0
  -10.0244  -24.8497   29.6150 H   0  0  0  0  0  0  0  0  0  0  0  0
   -9.2912  -26.9288   27.7548 H   0  0  0  0  0  0  0  0  0  0  0  0
  -11.4706  -31.6063   22.7968 H   0  0  0  0  0  0  0  0  0  0  0  0
  -11.7630  -32.6607   20.5952 H   0  0  0  0  0  0  0  0  0  0  0  0
  1  2  1  0
  2  3  1  0
  3  4  1  0
  4  5  2  0
  5  6  1  0
  6  7  1  0
  7  8  1  0
  8  9  1  0
  9 10  1  0
 10 11  2  0
 11 12  1  0
 12 13  2  0
 13 14  1  0
 14 15  1  0
 15 16  2  0
 16 17  1  0
 17 18  2  0
  6 19  2  0
 19 20  1  0
 20 21  2  0
 21  4  1  0
 18 10  1  0
 17 13  1  0
  1 22  1  0
  1 23  1  0
  1 24  1  0
  2 25  1  0
  2 26  1  0
  5 27  1  0
  7 28  1  0
  7 29  1  0
  8 30  1  0
  9 31  1  0
  9 32  1  0
 11 33  1  0
 12 34  1  0
 14 35  1  0
 15 36  1  0
 16 37  1  0
 18 38  1  0
 19 39  1  0
 20 40  1  0
M  END
>  <Energy>  (652) 
44.995082659978699

>  <compound_id>  (652) 
5639

>  <target_id>  (652) 
1

>  <reference_id>  (652) 
39

>  <inspiration_ids>  (652) 
[48, 39]

>  <energy_score>  (652) 
3.1407996878679114

>  <distance_score>  (652) 
10.004658782306073

>  <path>  (652) 
/opt/xchem-fragalysis-2/maxwin/BulkDock/SCRATCH/511018/C5639-P39/C5639-P39.minimised.mol

>  <scratch_subdir>  (652) 
/opt/xchem-fragalysis-2/maxwin/BulkDock/SCRATCH/511018/C5639-P39

>  <fragmenstein_runtime>  (652) 
10.642369747161865

>  <fragmenstein_outcome>  (652) 
too moved

>  <fragmenstein_mode>  (652) 
expansion

>  <fragmenstein_error>  (652) 


$$$$
C5640-P48
     RDKit          3D

 37 40  0  0  0  0  0  0  0  0999 V2000
  -17.6740  -25.1313   16.7954 C   0  0  0  0  0  0  0  0  0  0  0  0
  -17.5368  -26.6296   16.5789 C   0  0  0  0  0  0  0  0  0  0  0  0
  -17.0666  -27.4975   18.1146 S   0  0  0  0  0  0  0  0  0  0  0  0
  -15.3894  -26.9135   18.3074 C   0  0  0  0  0  0  0  0  0  0  0  0
  -14.9264  -26.5994   19.6188 C   0  0  0  0  0  0  0  0  0  0  0  0
  -13.6435  -26.0189   19.9377 C   0  0  0  0  0  0  0  0  0  0  0  0
  -12.9145  -25.5495   21.6769 C   0  0  0  0  0  0  0  0  0  0  0  0
  -13.6659  -25.5653   23.2975 N   0  0  0  0  0  0  0  0  0  0  0  0
  -12.6230  -25.8713   24.8391 C   0  0  0  0  0  0  0  0  0  0  0  0
  -12.7224  -25.5923   26.2525 C   0  0  0  0  0  0  0  0  0  0  0  0
  -12.2994  -24.3321   26.7007 C   0  0  0  0  0  0  0  0  0  0  0  0
  -11.8603  -24.1360   28.0104 C   0  0  0  0  0  0  0  0  0  0  0  0
  -11.9108  -25.2307   28.8718 C   0  0  0  0  0  0  0  0  0  0  0  0
  -11.5777  -25.3169   30.2021 N   0  0  0  0  0  0  0  0  0  0  0  0
  -11.7350  -26.6033   30.6399 C   0  0  0  0  0  0  0  0  0  0  0  0
  -12.2126  -27.3539   29.5911 C   0  0  0  0  0  0  0  0  0  0  0  0
  -12.3481  -26.4916   28.4720 C   0  0  0  0  0  0  0  0  0  0  0  0
  -12.7558  -26.6810   27.1380 C   0  0  0  0  0  0  0  0  0  0  0  0
  -11.0136  -26.4171   24.2379 N   0  0  0  0  0  0  0  0  0  0  0  0
  -10.9277  -26.0742   22.1034 O   0  0  0  0  0  0  0  0  0  0  0  0
  -12.8863  -26.1734   18.7251 C   0  0  0  0  0  0  0  0  0  0  0  0
  -13.3697  -26.5153   17.4449 C   0  0  0  0  0  0  0  0  0  0  0  0
  -14.6361  -26.8260   17.2084 N   0  0  0  0  0  0  0  0  0  0  0  0
  -18.0200  -24.6542   15.8724 H   0  0  0  0  0  0  0  0  0  0  0  0
  -18.4049  -24.9041   17.5788 H   0  0  0  0  0  0  0  0  0  0  0  0
  -16.7204  -24.6666   17.0650 H   0  0  0  0  0  0  0  0  0  0  0  0
  -18.5034  -27.0344   16.2613 H   0  0  0  0  0  0  0  0  0  0  0  0
  -16.8217  -26.8457   15.7792 H   0  0  0  0  0  0  0  0  0  0  0  0
  -15.6916  -26.8002   20.3714 H   0  0  0  0  0  0  0  0  0  0  0  0
  -12.2388  -23.4842   26.0180 H   0  0  0  0  0  0  0  0  0  0  0  0
  -11.5212  -23.1590   28.3430 H   0  0  0  0  0  0  0  0  0  0  0  0
  -11.2578  -24.5413   30.7665 H   0  0  0  0  0  0  0  0  0  0  0  0
  -11.5014  -26.8719   31.6619 H   0  0  0  0  0  0  0  0  0  0  0  0
  -12.4392  -28.4117   29.6307 H   0  0  0  0  0  0  0  0  0  0  0  0
  -13.0016  -27.6820   26.7948 H   0  0  0  0  0  0  0  0  0  0  0  0
  -11.8098  -26.1409   18.7326 H   0  0  0  0  0  0  0  0  0  0  0  0
  -12.6959  -26.5783   16.5936 H   0  0  0  0  0  0  0  0  0  0  0  0
  1  2  1  0
  2  3  1  0
  3  4  1  0
  4  5  2  0
  5  6  1  0
  6  7  1  0
  7  8  2  0
  8  9  1  0
  9 10  1  0
 10 11  2  0
 11 12  1  0
 12 13  2  0
 13 14  1  0
 14 15  1  0
 15 16  2  0
 16 17  1  0
 17 18  2  0
  9 19  2  0
 19 20  1  0
  6 21  2  0
 21 22  1  0
 22 23  2  0
 23  4  1  0
 20  7  1  0
 18 10  1  0
 17 13  1  0
  1 24  1  0
  1 25  1  0
  1 26  1  0
  2 27  1  0
  2 28  1  0
  5 29  1  0
 11 30  1  0
 12 31  1  0
 14 32  1  0
 15 33  1  0
 16 34  1  0
 18 35  1  0
 21 36  1  0
 22 37  1  0
M  END
>  <Energy>  (653) 
676.62394495211583

>  <compound_id>  (653) 
5640

>  <target_id>  (653) 
1

>  <reference_id>  (653) 
48

>  <inspiration_ids>  (653) 
[48, 39]

>  <energy_score>  (653) 
612.828810213664

>  <distance_score>  (653) 
7.71470071323927

>  <path>  (653) 
/opt/xchem-fragalysis-2/maxwin/BulkDock/SCRATCH/511018/C5640-P48/C5640-P48.minimised.mol

>  <scratch_subdir>  (653) 
/opt/xchem-fragalysis-2/maxwin/BulkDock/SCRATCH/511018/C5640-P48

>  <fragmenstein_runtime>  (653) 
5.7383668422698975

>  <fragmenstein_outcome>  (653) 
too moved

>  <fragmenstein_mode>  (653) 
expansion

>  <fragmenstein_error>  (653) 


$$$$
C5640-P39
     RDKit          3D

 37 40  0  0  0  0  0  0  0  0999 V2000
   -7.0525  -33.5650   19.9308 C   0  0  0  0  0  0  0  0  0  0  0  0
   -7.8148  -33.1865   21.1890 C   0  0  0  0  0  0  0  0  0  0  0  0
   -7.7779  -31.3788   21.4073 S   0  0  0  0  0  0  0  0  0  0  0  0
   -8.8274  -31.1909   22.8267 C   0  0  0  0  0  0  0  0  0  0  0  0
   -9.2261  -29.9297   23.2514 C   0  0  0  0  0  0  0  0  0  0  0  0
   -9.7449  -29.6784   24.5658 C   0  0  0  0  0  0  0  0  0  0  0  0
  -10.2295  -28.2663   25.1207 C   0  0  0  0  0  0  0  0  0  0  0  0
   -9.9777  -27.5679   26.2009 N   0  0  0  0  0  0  0  0  0  0  0  0
  -10.9195  -26.5624   26.2589 C   0  0  0  0  0  0  0  0  0  0  0  0
  -11.1859  -25.7836   27.4659 C   0  0  0  0  0  0  0  0  0  0  0  0
  -12.2997  -24.9379   27.5433 C   0  0  0  0  0  0  0  0  0  0  0  0
  -12.6641  -24.3208   28.7437 C   0  0  0  0  0  0  0  0  0  0  0  0
  -11.8879  -24.5823   29.8692 C   0  0  0  0  0  0  0  0  0  0  0  0
  -12.0707  -24.1947   31.1755 N   0  0  0  0  0  0  0  0  0  0  0  0
  -11.0452  -24.6703   31.9465 C   0  0  0  0  0  0  0  0  0  0  0  0
  -10.2182  -25.4191   31.1419 C   0  0  0  0  0  0  0  0  0  0  0  0
  -10.7460  -25.3745   29.8261 C   0  0  0  0  0  0  0  0  0  0  0  0
  -10.3768  -25.9558   28.6013 C   0  0  0  0  0  0  0  0  0  0  0  0
  -11.5629  -26.4312   25.0986 N   0  0  0  0  0  0  0  0  0  0  0  0
  -11.1160  -27.5398   24.3558 O   0  0  0  0  0  0  0  0  0  0  0  0
   -9.9122  -30.8261   25.3260 C   0  0  0  0  0  0  0  0  0  0  0  0
   -9.6173  -32.0696   24.7725 C   0  0  0  0  0  0  0  0  0  0  0  0
   -9.0780  -32.2751   23.5574 N   0  0  0  0  0  0  0  0  0  0  0  0
   -7.0736  -34.6516   19.7960 H   0  0  0  0  0  0  0  0  0  0  0  0
   -7.4988  -33.1126   19.0386 H   0  0  0  0  0  0  0  0  0  0  0  0
   -6.0023  -33.2594   19.9891 H   0  0  0  0  0  0  0  0  0  0  0  0
   -7.3552  -33.6731   22.0551 H   0  0  0  0  0  0  0  0  0  0  0  0
   -8.8520  -33.5262   21.1025 H   0  0  0  0  0  0  0  0  0  0  0  0
   -9.1580  -29.1524   22.5080 H   0  0  0  0  0  0  0  0  0  0  0  0
  -12.9230  -24.7774   26.6649 H   0  0  0  0  0  0  0  0  0  0  0  0
  -13.5477  -23.7078   28.8234 H   0  0  0  0  0  0  0  0  0  0  0  0
  -12.8784  -23.6925   31.5235 H   0  0  0  0  0  0  0  0  0  0  0  0
  -11.0179  -24.4691   33.0088 H   0  0  0  0  0  0  0  0  0  0  0  0
   -9.3419  -25.9597   31.4761 H   0  0  0  0  0  0  0  0  0  0  0  0
   -9.4866  -26.5732   28.5601 H   0  0  0  0  0  0  0  0  0  0  0  0
  -10.3104  -30.7980   26.3341 H   0  0  0  0  0  0  0  0  0  0  0  0
   -9.7842  -32.9754   25.3522 H   0  0  0  0  0  0  0  0  0  0  0  0
  1  2  1  0
  2  3  1  0
  3  4  1  0
  4  5  2  0
  5  6  1  0
  6  7  1  0
  7  8  2  0
  8  9  1  0
  9 10  1  0
 10 11  2  0
 11 12  1  0
 12 13  2  0
 13 14  1  0
 14 15  1  0
 15 16  2  0
 16 17  1  0
 17 18  2  0
  9 19  2  0
 19 20  1  0
  6 21  2  0
 21 22  1  0
 22 23  2  0
 23  4  1  0
 20  7  1  0
 18 10  1  0
 17 13  1  0
  1 24  1  0
  1 25  1  0
  1 26  1  0
  2 27  1  0
  2 28  1  0
  5 29  1  0
 11 30  1  0
 12 31  1  0
 14 32  1  0
 15 33  1  0
 16 34  1  0
 18 35  1  0
 21 36  1  0
 22 37  1  0
M  END
>  <Energy>  (654) 
42.95690245158422

>  <compound_id>  (654) 
5640

>  <target_id>  (654) 
1

>  <reference_id>  (654) 
39

>  <inspiration_ids>  (654) 
[48, 39]

>  <energy_score>  (654) 
-20.83823228686569

>  <distance_score>  (654) 
10.590156062592976

>  <path>  (654) 
/opt/xchem-fragalysis-2/maxwin/BulkDock/SCRATCH/511018/C5640-P39/C5640-P39.minimised.mol

>  <scratch_subdir>  (654) 
/opt/xchem-fragalysis-2/maxwin/BulkDock/SCRATCH/511018/C5640-P39

>  <fragmenstein_runtime>  (654) 
16.266304969787598

>  <fragmenstein_outcome>  (654) 
too moved

>  <fragmenstein_mode>  (654) 
expansion

>  <fragmenstein_error>  (654) 


$$$$
C5641-P48
     RDKit          3D

 39 41  0  0  0  0  0  0  0  0999 V2000
  -11.9158  -26.9328   15.3262 C   0  0  0  0  0  0  0  0  0  0  0  0
  -13.3746  -27.0364   15.7366 C   0  0  0  0  0  0  0  0  0  0  0  0
  -13.4832  -27.3362   17.5297 S   0  0  0  0  0  0  0  0  0  0  0  0
  -15.2541  -27.2942   17.7607 C   0  0  0  0  0  0  0  0  0  0  0  0
  -15.7428  -27.1081   19.0630 C   0  0  0  0  0  0  0  0  0  0  0  0
  -17.1149  -27.0883   19.3235 C   0  0  0  0  0  0  0  0  0  0  0  0
  -17.7835  -26.6872   20.6722 C   0  0  0  0  0  0  0  0  0  0  0  0
  -18.8634  -26.1988   20.4871 O   0  0  0  0  0  0  0  0  0  0  0  0
  -17.0167  -26.8537   21.8980 N   0  0  0  0  0  0  0  0  0  0  0  0
  -17.2822  -26.3880   23.2780 C   0  0  0  0  0  0  0  0  0  0  0  0
  -16.3752  -26.7993   24.4530 C   0  0  0  0  0  0  0  0  0  0  0  0
  -16.8363  -27.7570   25.3702 C   0  0  0  0  0  0  0  0  0  0  0  0
  -16.0896  -28.1641   26.4939 C   0  0  0  0  0  0  0  0  0  0  0  0
  -14.8294  -27.5964   26.6927 C   0  0  0  0  0  0  0  0  0  0  0  0
  -13.8984  -27.8097   27.6851 N   0  0  0  0  0  0  0  0  0  0  0  0
  -12.8141  -26.9959   27.4945 C   0  0  0  0  0  0  0  0  0  0  0  0
  -13.0500  -26.2431   26.3687 C   0  0  0  0  0  0  0  0  0  0  0  0
  -14.3156  -26.6309   25.8347 C   0  0  0  0  0  0  0  0  0  0  0  0
  -15.1144  -26.2173   24.7338 C   0  0  0  0  0  0  0  0  0  0  0  0
  -17.9362  -27.2537   18.1923 C   0  0  0  0  0  0  0  0  0  0  0  0
  -17.3759  -27.4290   16.9263 C   0  0  0  0  0  0  0  0  0  0  0  0
  -16.0512  -27.4630   16.6900 N   0  0  0  0  0  0  0  0  0  0  0  0
  -11.4138  -26.1020   15.8329 H   0  0  0  0  0  0  0  0  0  0  0  0
  -11.8443  -26.7534   14.2483 H   0  0  0  0  0  0  0  0  0  0  0  0
  -11.3686  -27.8561   15.5454 H   0  0  0  0  0  0  0  0  0  0  0  0
  -13.8494  -27.8603   15.1945 H   0  0  0  0  0  0  0  0  0  0  0  0
  -13.8927  -26.1048   15.4872 H   0  0  0  0  0  0  0  0  0  0  0  0
  -15.0243  -26.8759   19.8277 H   0  0  0  0  0  0  0  0  0  0  0  0
  -16.1865  -27.3796   21.6962 H   0  0  0  0  0  0  0  0  0  0  0  0
  -18.3153  -26.6863   23.4961 H   0  0  0  0  0  0  0  0  0  0  0  0
  -17.3145  -25.2930   23.2360 H   0  0  0  0  0  0  0  0  0  0  0  0
  -17.8173  -28.2107   25.2212 H   0  0  0  0  0  0  0  0  0  0  0  0
  -16.4939  -28.9056   27.1777 H   0  0  0  0  0  0  0  0  0  0  0  0
  -14.0164  -28.4573   28.4545 H   0  0  0  0  0  0  0  0  0  0  0  0
  -11.9873  -26.9999   28.1941 H   0  0  0  0  0  0  0  0  0  0  0  0
  -12.3950  -25.4640   26.0076 H   0  0  0  0  0  0  0  0  0  0  0  0
  -14.7187  -25.4213   24.1258 H   0  0  0  0  0  0  0  0  0  0  0  0
  -19.0189  -27.2063   18.2872 H   0  0  0  0  0  0  0  0  0  0  0  0
  -18.0095  -27.5420   16.0503 H   0  0  0  0  0  0  0  0  0  0  0  0
  1  2  1  0
  2  3  1  0
  3  4  1  0
  4  5  2  0
  5  6  1  0
  6  7  1  0
  7  8  2  0
  7  9  1  0
  9 10  1  0
 10 11  1  0
 11 12  2  0
 12 13  1  0
 13 14  2  0
 14 15  1  0
 15 16  1  0
 16 17  2  0
 17 18  1  0
 18 19  2  0
  6 20  2  0
 20 21  1  0
 21 22  2  0
 22  4  1  0
 19 11  1  0
 18 14  1  0
  1 23  1  0
  1 24  1  0
  1 25  1  0
  2 26  1  0
  2 27  1  0
  5 28  1  0
  9 29  1  0
 10 30  1  0
 10 31  1  0
 12 32  1  0
 13 33  1  0
 15 34  1  0
 16 35  1  0
 17 36  1  0
 19 37  1  0
 20 38  1  0
 21 39  1  0
M  END
>  <Energy>  (655) 
0.54804998321762755

>  <compound_id>  (655) 
5641

>  <target_id>  (655) 
1

>  <reference_id>  (655) 
48

>  <inspiration_ids>  (655) 
[48, 39]

>  <energy_score>  (655) 
-5.1287634398571385

>  <distance_score>  (655) 
9.047569044305721

>  <path>  (655) 
/opt/xchem-fragalysis-2/maxwin/BulkDock/SCRATCH/511018/C5641-P48/C5641-P48.minimised.mol

>  <scratch_subdir>  (655) 
/opt/xchem-fragalysis-2/maxwin/BulkDock/SCRATCH/511018/C5641-P48

>  <fragmenstein_runtime>  (655) 
7.943602561950684

>  <fragmenstein_outcome>  (655) 
too moved

>  <fragmenstein_mode>  (655) 
expansion

>  <fragmenstein_error>  (655) 


$$$$
C5641-P39
     RDKit          3D

 39 41  0  0  0  0  0  0  0  0999 V2000
  -13.9320  -34.4676   18.9938 C   0  0  0  0  0  0  0  0  0  0  0  0
  -12.5853  -33.9382   19.4554 C   0  0  0  0  0  0  0  0  0  0  0  0
  -12.8252  -32.7471   20.8131 S   0  0  0  0  0  0  0  0  0  0  0  0
  -11.1272  -32.3795   21.2263 C   0  0  0  0  0  0  0  0  0  0  0  0
  -10.8555  -31.8143   22.4734 C   0  0  0  0  0  0  0  0  0  0  0  0
   -9.5640  -31.3905   22.7970 C   0  0  0  0  0  0  0  0  0  0  0  0
   -9.2217  -30.7141   24.1223 C   0  0  0  0  0  0  0  0  0  0  0  0
   -8.3845  -31.2957   24.7519 O   0  0  0  0  0  0  0  0  0  0  0  0
   -9.9413  -29.4816   24.4118 N   0  0  0  0  0  0  0  0  0  0  0  0
   -9.9366  -28.6311   25.5899 C   0  0  0  0  0  0  0  0  0  0  0  0
  -10.8810  -27.4162   26.2021 C   0  0  0  0  0  0  0  0  0  0  0  0
  -11.5135  -27.6039   27.4887 C   0  0  0  0  0  0  0  0  0  0  0  0
  -11.9486  -26.6209   28.3749 C   0  0  0  0  0  0  0  0  0  0  0  0
  -11.8746  -25.3453   27.8873 C   0  0  0  0  0  0  0  0  0  0  0  0
  -12.0941  -24.1564   28.5301 N   0  0  0  0  0  0  0  0  0  0  0  0
  -11.9307  -23.1418   27.6399 C   0  0  0  0  0  0  0  0  0  0  0  0
  -11.7574  -23.7027   26.3929 C   0  0  0  0  0  0  0  0  0  0  0  0
  -11.5419  -25.0862   26.5634 C   0  0  0  0  0  0  0  0  0  0  0  0
  -11.0663  -26.1332   25.7174 C   0  0  0  0  0  0  0  0  0  0  0  0
   -8.5535  -31.7452   21.9099 C   0  0  0  0  0  0  0  0  0  0  0  0
   -8.8955  -32.4319   20.7457 C   0  0  0  0  0  0  0  0  0  0  0  0
  -10.1640  -32.6827   20.3371 N   0  0  0  0  0  0  0  0  0  0  0  0
  -14.5740  -33.6627   18.6199 H   0  0  0  0  0  0  0  0  0  0  0  0
  -13.7901  -35.1835   18.1774 H   0  0  0  0  0  0  0  0  0  0  0  0
  -14.4584  -34.9875   19.8015 H   0  0  0  0  0  0  0  0  0  0  0  0
  -11.9632  -34.7700   19.8013 H   0  0  0  0  0  0  0  0  0  0  0  0
  -12.0815  -33.4465   18.6175 H   0  0  0  0  0  0  0  0  0  0  0  0
  -11.6498  -31.7135   23.2030 H   0  0  0  0  0  0  0  0  0  0  0  0
  -10.5139  -29.2420   23.6206 H   0  0  0  0  0  0  0  0  0  0  0  0
   -8.9022  -28.3751   25.8100 H   0  0  0  0  0  0  0  0  0  0  0  0
  -10.1840  -29.5232   26.1780 H   0  0  0  0  0  0  0  0  0  0  0  0
  -11.6568  -28.6168   27.8620 H   0  0  0  0  0  0  0  0  0  0  0  0
  -12.2636  -26.8541   29.3831 H   0  0  0  0  0  0  0  0  0  0  0  0
  -12.2950  -24.0613   29.5185 H   0  0  0  0  0  0  0  0  0  0  0  0
  -11.9853  -22.1113   27.9551 H   0  0  0  0  0  0  0  0  0  0  0  0
  -11.6906  -23.1520   25.4671 H   0  0  0  0  0  0  0  0  0  0  0  0
  -10.7486  -25.8363   24.7421 H   0  0  0  0  0  0  0  0  0  0  0  0
   -7.5128  -31.5291   22.1309 H   0  0  0  0  0  0  0  0  0  0  0  0
   -8.1137  -32.7621   20.0635 H   0  0  0  0  0  0  0  0  0  0  0  0
  1  2  1  0
  2  3  1  0
  3  4  1  0
  4  5  2  0
  5  6  1  0
  6  7  1  0
  7  8  2  0
  7  9  1  0
  9 10  1  0
 10 11  1  0
 11 12  2  0
 12 13  1  0
 13 14  2  0
 14 15  1  0
 15 16  1  0
 16 17  2  0
 17 18  1  0
 18 19  2  0
  6 20  2  0
 20 21  1  0
 21 22  2  0
 22  4  1  0
 19 11  1  0
 18 14  1  0
  1 23  1  0
  1 24  1  0
  1 25  1  0
  2 26  1  0
  2 27  1  0
  5 28  1  0
  9 29  1  0
 10 30  1  0
 10 31  1  0
 12 32  1  0
 13 33  1  0
 15 34  1  0
 16 35  1  0
 17 36  1  0
 19 37  1  0
 20 38  1  0
 21 39  1  0
M  END
>  <Energy>  (656) 
39.815539136188328

>  <compound_id>  (656) 
5641

>  <target_id>  (656) 
1

>  <reference_id>  (656) 
39

>  <inspiration_ids>  (656) 
[48, 39]

>  <energy_score>  (656) 
34.13872571311275

>  <distance_score>  (656) 
9.993662825811402

>  <path>  (656) 
/opt/xchem-fragalysis-2/maxwin/BulkDock/SCRATCH/511018/C5641-P39/C5641-P39.minimised.mol

>  <scratch_subdir>  (656) 
/opt/xchem-fragalysis-2/maxwin/BulkDock/SCRATCH/511018/C5641-P39

>  <fragmenstein_runtime>  (656) 
12.798931360244751

>  <fragmenstein_outcome>  (656) 
too moved

>  <fragmenstein_mode>  (656) 
expansion

>  <fragmenstein_error>  (656) 


$$$$
C5642-P48
     RDKit          3D

 36 38  0  0  0  0  0  0  0  0999 V2000
  -10.4433  -30.1077   21.2617 C   0  0  0  0  0  0  0  0  0  0  0  0
  -10.6420  -28.1042   21.0342 C   0  0  0  0  0  0  0  0  0  0  0  0
  -10.3831  -27.2157   22.7048 N   0  0  0  0  0  0  0  0  0  0  0  0
  -10.7655  -27.4147   24.6157 C   0  0  0  0  0  0  0  0  0  0  0  0
  -11.2128  -26.5130   25.8610 C   0  0  0  0  0  0  0  0  0  0  0  0
  -11.8992  -27.2635   26.8732 C   0  0  0  0  0  0  0  0  0  0  0  0
  -12.2155  -26.8030   28.1496 C   0  0  0  0  0  0  0  0  0  0  0  0
  -11.8718  -25.4967   28.4148 C   0  0  0  0  0  0  0  0  0  0  0  0
  -12.0178  -24.7830   29.5772 N   0  0  0  0  0  0  0  0  0  0  0  0
  -11.6729  -23.4865   29.3563 C   0  0  0  0  0  0  0  0  0  0  0  0
  -11.2665  -23.3782   28.0501 C   0  0  0  0  0  0  0  0  0  0  0  0
  -11.2835  -24.6665   27.4642 C   0  0  0  0  0  0  0  0  0  0  0  0
  -10.8885  -25.2012   26.2059 C   0  0  0  0  0  0  0  0  0  0  0  0
  -12.0353  -28.0983   19.4658 C   0  0  0  0  0  0  0  0  0  0  0  0
  -13.3940  -27.6151   19.3360 C   0  0  0  0  0  0  0  0  0  0  0  0
  -14.2345  -27.5849   18.1720 C   0  0  0  0  0  0  0  0  0  0  0  0
  -13.8372  -27.8484   16.9299 N   0  0  0  0  0  0  0  0  0  0  0  0
  -12.5238  -27.9717   16.8545 C   0  0  0  0  0  0  0  0  0  0  0  0
  -11.6800  -28.0091   17.9984 C   0  0  0  0  0  0  0  0  0  0  0  0
  -11.2245  -30.6559   21.8041 H   0  0  0  0  0  0  0  0  0  0  0  0
  -10.5686  -30.5849   20.2780 H   0  0  0  0  0  0  0  0  0  0  0  0
   -9.4685  -30.3890   21.7028 H   0  0  0  0  0  0  0  0  0  0  0  0
  -10.2494  -27.1810   20.6127 H   0  0  0  0  0  0  0  0  0  0  0  0
   -9.9278  -26.4007   22.4089 H   0  0  0  0  0  0  0  0  0  0  0  0
  -11.6572  -28.0111   24.7673 H   0  0  0  0  0  0  0  0  0  0  0  0
   -9.8537  -27.8676   24.9769 H   0  0  0  0  0  0  0  0  0  0  0  0
  -12.1809  -28.3007   26.7024 H   0  0  0  0  0  0  0  0  0  0  0  0
  -12.6872  -27.4437   28.8868 H   0  0  0  0  0  0  0  0  0  0  0  0
  -12.4209  -25.1356   30.4340 H   0  0  0  0  0  0  0  0  0  0  0  0
  -11.8314  -22.7330   30.1149 H   0  0  0  0  0  0  0  0  0  0  0  0
  -11.0354  -22.4360   27.5884 H   0  0  0  0  0  0  0  0  0  0  0  0
  -10.3096  -24.5586   25.5586 H   0  0  0  0  0  0  0  0  0  0  0  0
  -13.8473  -26.9481   20.0620 H   0  0  0  0  0  0  0  0  0  0  0  0
  -15.2583  -27.2256   18.2594 H   0  0  0  0  0  0  0  0  0  0  0  0
  -12.1017  -27.9735   15.8532 H   0  0  0  0  0  0  0  0  0  0  0  0
  -10.6722  -27.8166   17.6257 H   0  0  0  0  0  0  0  0  0  0  0  0
  1  2  1  0
  2  3  1  0
  3  4  1  0
  4  5  1  0
  5  6  2  0
  6  7  1  0
  7  8  2  0
  8  9  1  0
  9 10  1  0
 10 11  2  0
 11 12  1  0
 12 13  2  0
  2 14  1  0
 14 15  2  0
 15 16  1  0
 16 17  2  0
 17 18  1  0
 18 19  2  0
 13  5  1  0
 19 14  1  0
 12  8  1  0
  1 20  1  0
  1 21  1  0
  1 22  1  0
  2 23  1  0
  3 24  1  0
  4 25  1  0
  4 26  1  0
  6 27  1  0
  7 28  1  0
  9 29  1  0
 10 30  1  0
 11 31  1  0
 13 32  1  0
 15 33  1  0
 16 34  1  0
 18 35  1  0
 19 36  1  0
M  END
>  <Energy>  (657) 
475.76586082184542

>  <compound_id>  (657) 
5642

>  <target_id>  (657) 
1

>  <reference_id>  (657) 
48

>  <inspiration_ids>  (657) 
[48, 39]

>  <energy_score>  (657) 
419.9258790753926

>  <distance_score>  (657) 
7.5211444679061685

>  <path>  (657) 
/opt/xchem-fragalysis-2/maxwin/BulkDock/SCRATCH/511018/C5642-P48/C5642-P48.minimised.mol

>  <scratch_subdir>  (657) 
/opt/xchem-fragalysis-2/maxwin/BulkDock/SCRATCH/511018/C5642-P48

>  <fragmenstein_runtime>  (657) 
5.057575464248657

>  <fragmenstein_outcome>  (657) 
too moved

>  <fragmenstein_mode>  (657) 
expansion

>  <fragmenstein_error>  (657) 


$$$$
C5642-P39
     RDKit          3D

 36 38  0  0  0  0  0  0  0  0999 V2000
   -9.2263  -31.9326   25.6845 C   0  0  0  0  0  0  0  0  0  0  0  0
   -8.4609  -30.9895   24.7341 C   0  0  0  0  0  0  0  0  0  0  0  0
   -8.5022  -29.5895   25.2868 N   0  0  0  0  0  0  0  0  0  0  0  0
   -9.7955  -28.8993   25.4348 C   0  0  0  0  0  0  0  0  0  0  0  0
  -10.2091  -27.3892   25.9934 C   0  0  0  0  0  0  0  0  0  0  0  0
   -9.8152  -26.7419   27.2086 C   0  0  0  0  0  0  0  0  0  0  0  0
  -10.5793  -25.8098   27.9345 C   0  0  0  0  0  0  0  0  0  0  0  0
  -11.8442  -25.5930   27.4313 C   0  0  0  0  0  0  0  0  0  0  0  0
  -12.9596  -25.0468   28.0110 N   0  0  0  0  0  0  0  0  0  0  0  0
  -14.0386  -25.3266   27.2127 C   0  0  0  0  0  0  0  0  0  0  0  0
  -13.5810  -25.7282   25.9874 C   0  0  0  0  0  0  0  0  0  0  0  0
  -12.2098  -26.0151   26.1622 C   0  0  0  0  0  0  0  0  0  0  0  0
  -11.3169  -26.7833   25.3941 C   0  0  0  0  0  0  0  0  0  0  0  0
   -8.8385  -31.3143   23.2643 C   0  0  0  0  0  0  0  0  0  0  0  0
   -8.7714  -32.6361   22.7741 C   0  0  0  0  0  0  0  0  0  0  0  0
   -9.3734  -32.9974   21.5612 C   0  0  0  0  0  0  0  0  0  0  0  0
  -10.0883  -32.1537   20.8106 N   0  0  0  0  0  0  0  0  0  0  0  0
  -10.0407  -30.8832   21.2495 C   0  0  0  0  0  0  0  0  0  0  0  0
   -9.3506  -30.4115   22.3634 C   0  0  0  0  0  0  0  0  0  0  0  0
   -8.9835  -32.9834   25.4940 H   0  0  0  0  0  0  0  0  0  0  0  0
  -10.3114  -31.8239   25.5765 H   0  0  0  0  0  0  0  0  0  0  0  0
   -8.9623  -31.7493   26.7301 H   0  0  0  0  0  0  0  0  0  0  0  0
   -7.4010  -31.2687   24.8119 H   0  0  0  0  0  0  0  0  0  0  0  0
   -7.7280  -29.0555   24.9282 H   0  0  0  0  0  0  0  0  0  0  0  0
  -10.2608  -28.9421   24.4641 H   0  0  0  0  0  0  0  0  0  0  0  0
  -10.3076  -29.6214   26.0654 H   0  0  0  0  0  0  0  0  0  0  0  0
   -8.8602  -26.9879   27.6715 H   0  0  0  0  0  0  0  0  0  0  0  0
  -10.2523  -25.4448   28.9014 H   0  0  0  0  0  0  0  0  0  0  0  0
  -13.0010  -24.7147   28.9674 H   0  0  0  0  0  0  0  0  0  0  0  0
  -15.0505  -25.1850   27.5529 H   0  0  0  0  0  0  0  0  0  0  0  0
  -14.1981  -25.9882   25.1393 H   0  0  0  0  0  0  0  0  0  0  0  0
  -11.7194  -27.1659   24.4699 H   0  0  0  0  0  0  0  0  0  0  0  0
   -8.2915  -33.4165   23.3588 H   0  0  0  0  0  0  0  0  0  0  0  0
   -9.3241  -34.0218   21.2044 H   0  0  0  0  0  0  0  0  0  0  0  0
  -10.6075  -30.1862   20.6592 H   0  0  0  0  0  0  0  0  0  0  0  0
   -9.3710  -29.3588   22.5663 H   0  0  0  0  0  0  0  0  0  0  0  0
  1  2  1  0
  2  3  1  0
  3  4  1  0
  4  5  1  0
  5  6  2  0
  6  7  1  0
  7  8  2  0
  8  9  1  0
  9 10  1  0
 10 11  2  0
 11 12  1  0
 12 13  2  0
  2 14  1  0
 14 15  2  0
 15 16  1  0
 16 17  2  0
 17 18  1  0
 18 19  2  0
 13  5  1  0
 19 14  1  0
 12  8  1  0
  1 20  1  0
  1 21  1  0
  1 22  1  0
  2 23  1  0
  3 24  1  0
  4 25  1  0
  4 26  1  0
  6 27  1  0
  7 28  1  0
  9 29  1  0
 10 30  1  0
 11 31  1  0
 13 32  1  0
 15 33  1  0
 16 34  1  0
 18 35  1  0
 19 36  1  0
M  END
>  <Energy>  (658) 
86.382657585951762

>  <compound_id>  (658) 
5642

>  <target_id>  (658) 
1

>  <reference_id>  (658) 
39

>  <inspiration_ids>  (658) 
[48, 39]

>  <energy_score>  (658) 
30.542675839499907

>  <distance_score>  (658) 
10.16267275907155

>  <path>  (658) 
/opt/xchem-fragalysis-2/maxwin/BulkDock/SCRATCH/511018/C5642-P39/C5642-P39.minimised.mol

>  <scratch_subdir>  (658) 
/opt/xchem-fragalysis-2/maxwin/BulkDock/SCRATCH/511018/C5642-P39

>  <fragmenstein_runtime>  (658) 
9.877522706985474

>  <fragmenstein_outcome>  (658) 
too moved

>  <fragmenstein_mode>  (658) 
expansion

>  <fragmenstein_error>  (658) 


$$$$
C5643-P48
     RDKit          3D

 40 42  0  0  0  0  0  0  0  0999 V2000
   -9.6434  -26.9148   15.6703 C   0  0  0  0  0  0  0  0  0  0  0  0
  -10.4575  -26.8584   16.8586 O   0  0  0  0  0  0  0  0  0  0  0  0
  -11.5396  -27.6696   16.8123 C   0  0  0  0  0  0  0  0  0  0  0  0
  -12.1937  -27.8386   15.5639 C   0  0  0  0  0  0  0  0  0  0  0  0
  -13.1247  -28.7656   15.2710 N   0  0  0  0  0  0  0  0  0  0  0  0
  -13.4476  -29.5732   16.2840 C   0  0  0  0  0  0  0  0  0  0  0  0
  -12.9370  -29.4359   17.5778 C   0  0  0  0  0  0  0  0  0  0  0  0
  -11.9744  -28.4162   17.9296 C   0  0  0  0  0  0  0  0  0  0  0  0
  -11.9608  -28.0855   19.6957 C   0  0  0  0  0  0  0  0  0  0  0  0
  -13.3227  -27.0614   19.2658 C   0  0  0  0  0  0  0  0  0  0  0  0
  -10.5507  -27.8225   21.2104 N   0  0  0  0  0  0  0  0  0  0  0  0
  -10.4804  -27.2582   23.1449 C   0  0  0  0  0  0  0  0  0  0  0  0
  -11.1270  -27.0119   25.0313 C   0  0  0  0  0  0  0  0  0  0  0  0
  -12.2445  -27.5959   25.6942 C   0  0  0  0  0  0  0  0  0  0  0  0
  -12.7061  -27.3773   27.0193 C   0  0  0  0  0  0  0  0  0  0  0  0
  -12.1305  -26.3385   27.7167 C   0  0  0  0  0  0  0  0  0  0  0  0
  -12.3682  -25.8496   28.9775 N   0  0  0  0  0  0  0  0  0  0  0  0
  -11.6411  -24.7090   29.1699 C   0  0  0  0  0  0  0  0  0  0  0  0
  -10.9138  -24.4776   28.0276 C   0  0  0  0  0  0  0  0  0  0  0  0
  -11.1814  -25.5309   27.1216 C   0  0  0  0  0  0  0  0  0  0  0  0
  -10.7033  -25.8680   25.8222 C   0  0  0  0  0  0  0  0  0  0  0  0
   -9.9145  -26.0957   14.9975 H   0  0  0  0  0  0  0  0  0  0  0  0
   -8.6011  -26.8029   15.9583 H   0  0  0  0  0  0  0  0  0  0  0  0
   -9.6960  -27.8819   15.1553 H   0  0  0  0  0  0  0  0  0  0  0  0
  -11.9492  -27.2055   14.7139 H   0  0  0  0  0  0  0  0  0  0  0  0
  -14.1856  -30.3374   16.0553 H   0  0  0  0  0  0  0  0  0  0  0  0
  -13.3519  -30.0944   18.3377 H   0  0  0  0  0  0  0  0  0  0  0  0
  -12.3207  -29.1307   19.7847 H   0  0  0  0  0  0  0  0  0  0  0  0
  -14.1245  -27.6529   18.8075 H   0  0  0  0  0  0  0  0  0  0  0  0
  -13.0020  -26.2838   18.5627 H   0  0  0  0  0  0  0  0  0  0  0  0
  -13.8340  -26.5331   20.0658 H   0  0  0  0  0  0  0  0  0  0  0  0
  -10.3996  -26.8438   20.8624 H   0  0  0  0  0  0  0  0  0  0  0  0
   -9.8060  -27.7101   24.2466 H   0  0  0  0  0  0  0  0  0  0  0  0
   -9.3200  -27.3127   23.0880 H   0  0  0  0  0  0  0  0  0  0  0  0
  -13.0001  -28.0986   25.1369 H   0  0  0  0  0  0  0  0  0  0  0  0
  -13.5526  -27.9326   27.4130 H   0  0  0  0  0  0  0  0  0  0  0  0
  -13.0015  -26.2513   29.6560 H   0  0  0  0  0  0  0  0  0  0  0  0
  -11.7215  -24.1485   30.0921 H   0  0  0  0  0  0  0  0  0  0  0  0
  -10.2431  -23.6475   27.8682 H   0  0  0  0  0  0  0  0  0  0  0  0
   -9.9751  -25.1335   25.4907 H   0  0  0  0  0  0  0  0  0  0  0  0
  1  2  1  0
  2  3  1  0
  3  4  2  0
  4  5  1  0
  5  6  2  0
  6  7  1  0
  7  8  2  0
  8  9  1  0
  9 10  1  0
  9 11  1  0
 11 12  1  0
 12 13  1  0
 13 14  2  0
 14 15  1  0
 15 16  2  0
 16 17  1  0
 17 18  1  0
 18 19  2  0
 19 20  1  0
 20 21  2  0
  8  3  1  0
 21 13  1  0
 20 16  1  0
  1 22  1  0
  1 23  1  0
  1 24  1  0
  4 25  1  0
  6 26  1  0
  7 27  1  0
  9 28  1  0
 10 29  1  0
 10 30  1  0
 10 31  1  0
 11 32  1  0
 12 33  1  0
 12 34  1  0
 14 35  1  0
 15 36  1  0
 17 37  1  0
 18 38  1  0
 19 39  1  0
 21 40  1  0
M  END
>  <Energy>  (659) 
630.67289601797665

>  <compound_id>  (659) 
5643

>  <target_id>  (659) 
1

>  <reference_id>  (659) 
48

>  <inspiration_ids>  (659) 
[48, 39]

>  <energy_score>  (659) 
544.9938573942775

>  <distance_score>  (659) 
7.059702093929967

>  <path>  (659) 
/opt/xchem-fragalysis-2/maxwin/BulkDock/SCRATCH/511018/C5643-P48/C5643-P48.minimised.mol

>  <scratch_subdir>  (659) 
/opt/xchem-fragalysis-2/maxwin/BulkDock/SCRATCH/511018/C5643-P48

>  <fragmenstein_runtime>  (659) 
5.75353217124939

>  <fragmenstein_outcome>  (659) 
too moved

>  <fragmenstein_mode>  (659) 
expansion

>  <fragmenstein_error>  (659) 


$$$$
C5643-P39
     RDKit          3D

 40 42  0  0  0  0  0  0  0  0999 V2000
  -12.4728  -26.6906   16.0664 C   0  0  0  0  0  0  0  0  0  0  0  0
  -12.3271  -26.3816   17.4520 O   0  0  0  0  0  0  0  0  0  0  0  0
  -13.3657  -25.7095   18.1352 C   0  0  0  0  0  0  0  0  0  0  0  0
  -14.6329  -25.7240   17.5343 C   0  0  0  0  0  0  0  0  0  0  0  0
  -15.7639  -25.5702   18.2276 N   0  0  0  0  0  0  0  0  0  0  0  0
  -15.6050  -25.3693   19.5506 C   0  0  0  0  0  0  0  0  0  0  0  0
  -14.3904  -25.1289   20.2475 C   0  0  0  0  0  0  0  0  0  0  0  0
  -13.1250  -25.1535   19.5909 C   0  0  0  0  0  0  0  0  0  0  0  0
  -11.4113  -25.5437   20.6478 C   0  0  0  0  0  0  0  0  0  0  0  0
  -10.4231  -26.6195   20.4141 C   0  0  0  0  0  0  0  0  0  0  0  0
  -11.2171  -27.1851   22.0175 N   0  0  0  0  0  0  0  0  0  0  0  0
  -11.8557  -27.0891   23.8667 C   0  0  0  0  0  0  0  0  0  0  0  0
  -11.9892  -25.9801   25.0448 C   0  0  0  0  0  0  0  0  0  0  0  0
  -11.3236  -26.3054   26.2451 C   0  0  0  0  0  0  0  0  0  0  0  0
  -12.0354  -26.5889   27.4243 C   0  0  0  0  0  0  0  0  0  0  0  0
  -13.4123  -26.6909   27.2309 C   0  0  0  0  0  0  0  0  0  0  0  0
  -14.3314  -27.5649   27.7595 N   0  0  0  0  0  0  0  0  0  0  0  0
  -15.5863  -27.2997   27.2744 C   0  0  0  0  0  0  0  0  0  0  0  0
  -15.4621  -26.3047   26.3375 C   0  0  0  0  0  0  0  0  0  0  0  0
  -14.0749  -26.0545   26.1978 C   0  0  0  0  0  0  0  0  0  0  0  0
  -13.3127  -25.4580   25.1933 C   0  0  0  0  0  0  0  0  0  0  0  0
  -12.7768  -25.8188   15.4824 H   0  0  0  0  0  0  0  0  0  0  0  0
  -13.1729  -27.5209   15.9330 H   0  0  0  0  0  0  0  0  0  0  0  0
  -11.4954  -27.0155   15.6971 H   0  0  0  0  0  0  0  0  0  0  0  0
  -14.8026  -25.9924   16.4997 H   0  0  0  0  0  0  0  0  0  0  0  0
  -16.5429  -25.3462   20.1056 H   0  0  0  0  0  0  0  0  0  0  0  0
  -14.5149  -24.9304   21.3058 H   0  0  0  0  0  0  0  0  0  0  0  0
  -10.8761  -24.7842   20.0707 H   0  0  0  0  0  0  0  0  0  0  0  0
   -9.5989  -25.9105   20.4623 H   0  0  0  0  0  0  0  0  0  0  0  0
  -10.7450  -27.7215   20.3423 H   0  0  0  0  0  0  0  0  0  0  0  0
  -10.4325  -27.0404   19.4198 H   0  0  0  0  0  0  0  0  0  0  0  0
  -11.1900  -28.1945   21.8103 H   0  0  0  0  0  0  0  0  0  0  0  0
  -12.8557  -27.4587   23.8984 H   0  0  0  0  0  0  0  0  0  0  0  0
  -11.1425  -27.8079   24.3066 H   0  0  0  0  0  0  0  0  0  0  0  0
  -10.3157  -26.7066   26.2207 H   0  0  0  0  0  0  0  0  0  0  0  0
  -11.5347  -27.0611   28.2634 H   0  0  0  0  0  0  0  0  0  0  0  0
  -14.1119  -28.2742   28.4432 H   0  0  0  0  0  0  0  0  0  0  0  0
  -16.4495  -27.8478   27.6300 H   0  0  0  0  0  0  0  0  0  0  0  0
  -16.2626  -25.9157   25.7211 H   0  0  0  0  0  0  0  0  0  0  0  0
  -13.9165  -25.1029   24.3637 H   0  0  0  0  0  0  0  0  0  0  0  0
  1  2  1  0
  2  3  1  0
  3  4  2  0
  4  5  1  0
  5  6  2  0
  6  7  1  0
  7  8  2  0
  8  9  1  0
  9 10  1  0
  9 11  1  0
 11 12  1  0
 12 13  1  0
 13 14  2  0
 14 15  1  0
 15 16  2  0
 16 17  1  0
 17 18  1  0
 18 19  2  0
 19 20  1  0
 20 21  2  0
  8  3  1  0
 21 13  1  0
 20 16  1  0
  1 22  1  0
  1 23  1  0
  1 24  1  0
  4 25  1  0
  6 26  1  0
  7 27  1  0
  9 28  1  0
 10 29  1  0
 10 30  1  0
 10 31  1  0
 11 32  1  0
 12 33  1  0
 12 34  1  0
 14 35  1  0
 15 36  1  0
 17 37  1  0
 18 38  1  0
 19 39  1  0
 21 40  1  0
M  END
>  <Energy>  (660) 
613.45367476964122

>  <compound_id>  (660) 
5643

>  <target_id>  (660) 
1

>  <reference_id>  (660) 
39

>  <inspiration_ids>  (660) 
[48, 39]

>  <energy_score>  (660) 
527.77463614594

>  <distance_score>  (660) 
7.887223880505302

>  <path>  (660) 
/opt/xchem-fragalysis-2/maxwin/BulkDock/SCRATCH/511018/C5643-P39/C5643-P39.minimised.mol

>  <scratch_subdir>  (660) 
/opt/xchem-fragalysis-2/maxwin/BulkDock/SCRATCH/511018/C5643-P39

>  <fragmenstein_runtime>  (660) 
13.071738004684448

>  <fragmenstein_outcome>  (660) 
too moved

>  <fragmenstein_mode>  (660) 
expansion

>  <fragmenstein_error>  (660) 


$$$$
C5644-P48
     RDKit          3D

 37 39  0  0  0  0  0  0  0  0999 V2000
  -18.7643  -27.3976   16.5675 C   0  0  0  0  0  0  0  0  0  0  0  0
  -17.8214  -26.3393   17.1461 C   0  0  0  0  0  0  0  0  0  0  0  0
  -17.6753  -26.5637   18.5889 N   0  0  0  0  0  0  0  0  0  0  0  0
  -18.4795  -26.0255   19.7585 C   0  0  0  0  0  0  0  0  0  0  0  0
  -19.3550  -25.2429   19.7763 O   0  0  0  0  0  0  0  0  0  0  0  0
  -17.7623  -26.7114   20.9024 N   0  0  0  0  0  0  0  0  0  0  0  0
  -17.8776  -26.5348   22.3022 C   0  0  0  0  0  0  0  0  0  0  0  0
  -18.4888  -25.4206   22.8759 C   0  0  0  0  0  0  0  0  0  0  0  0
  -18.3290  -25.0970   24.2382 C   0  0  0  0  0  0  0  0  0  0  0  0
  -17.5864  -25.9733   25.0333 C   0  0  0  0  0  0  0  0  0  0  0  0
  -17.2707  -25.9183   26.3692 N   0  0  0  0  0  0  0  0  0  0  0  0
  -16.5751  -27.0401   26.7414 C   0  0  0  0  0  0  0  0  0  0  0  0
  -16.4430  -27.8344   25.6276 C   0  0  0  0  0  0  0  0  0  0  0  0
  -17.0568  -27.1578   24.5317 C   0  0  0  0  0  0  0  0  0  0  0  0
  -17.2317  -27.4377   23.1530 C   0  0  0  0  0  0  0  0  0  0  0  0
  -16.5488  -26.2498   16.3041 C   0  0  0  0  0  0  0  0  0  0  0  0
  -15.5474  -27.2253   16.2794 C   0  0  0  0  0  0  0  0  0  0  0  0
  -14.4736  -27.1112   15.3866 C   0  0  0  0  0  0  0  0  0  0  0  0
  -14.4280  -26.0242   14.5286 C   0  0  0  0  0  0  0  0  0  0  0  0
  -15.3692  -25.0624   14.5085 N   0  0  0  0  0  0  0  0  0  0  0  0
  -16.3980  -25.2006   15.3855 C   0  0  0  0  0  0  0  0  0  0  0  0
  -19.7223  -27.3981   17.0996 H   0  0  0  0  0  0  0  0  0  0  0  0
  -18.9675  -27.2131   15.5069 H   0  0  0  0  0  0  0  0  0  0  0  0
  -18.3394  -28.4039   16.6593 H   0  0  0  0  0  0  0  0  0  0  0  0
  -18.3421  -25.3755   17.0749 H   0  0  0  0  0  0  0  0  0  0  0  0
  -17.0584  -27.2801   18.9124 H   0  0  0  0  0  0  0  0  0  0  0  0
  -17.1207  -27.3834   20.5357 H   0  0  0  0  0  0  0  0  0  0  0  0
  -19.0458  -24.7255   22.2457 H   0  0  0  0  0  0  0  0  0  0  0  0
  -18.7757  -24.1928   24.6417 H   0  0  0  0  0  0  0  0  0  0  0  0
  -17.5101  -25.1485   26.9806 H   0  0  0  0  0  0  0  0  0  0  0  0
  -16.2724  -27.1878   27.7693 H   0  0  0  0  0  0  0  0  0  0  0  0
  -15.9740  -28.8081   25.6088 H   0  0  0  0  0  0  0  0  0  0  0  0
  -16.8784  -28.3719   22.7377 H   0  0  0  0  0  0  0  0  0  0  0  0
  -15.6048  -28.0917   16.9317 H   0  0  0  0  0  0  0  0  0  0  0  0
  -13.6931  -27.8639   15.3561 H   0  0  0  0  0  0  0  0  0  0  0  0
  -13.6151  -25.8985   13.8193 H   0  0  0  0  0  0  0  0  0  0  0  0
  -17.1432  -24.4093   15.3178 H   0  0  0  0  0  0  0  0  0  0  0  0
  1  2  1  0
  2  3  1  0
  3  4  1  0
  4  5  2  0
  4  6  1  0
  6  7  1  0
  7  8  2  0
  8  9  1  0
  9 10  2  0
 10 11  1  0
 11 12  1  0
 12 13  2  0
 13 14  1  0
 14 15  2  0
  2 16  1  0
 16 17  2  0
 17 18  1  0
 18 19  2  0
 19 20  1  0
 20 21  2  0
 15  7  1  0
 21 16  1  0
 14 10  1  0
  1 22  1  0
  1 23  1  0
  1 24  1  0
  2 25  1  0
  3 26  1  0
  6 27  1  0
  8 28  1  0
  9 29  1  0
 11 30  1  0
 12 31  1  0
 13 32  1  0
 15 33  1  0
 17 34  1  0
 18 35  1  0
 19 36  1  0
 21 37  1  0
M  END
>  <Energy>  (661) 
-19.170782656490395

>  <compound_id>  (661) 
5644

>  <target_id>  (661) 
1

>  <reference_id>  (661) 
48

>  <inspiration_ids>  (661) 
[48, 39]

>  <energy_score>  (661) 
2.129581104205812

>  <distance_score>  (661) 
9.365786724958701

>  <path>  (661) 
/opt/xchem-fragalysis-2/maxwin/BulkDock/SCRATCH/511018/C5644-P48/C5644-P48.minimised.mol

>  <scratch_subdir>  (661) 
/opt/xchem-fragalysis-2/maxwin/BulkDock/SCRATCH/511018/C5644-P48

>  <fragmenstein_runtime>  (661) 
7.782405376434326

>  <fragmenstein_outcome>  (661) 
too moved

>  <fragmenstein_mode>  (661) 
expansion

>  <fragmenstein_error>  (661) 


$$$$
C5644-P39
     RDKit          3D

 37 39  0  0  0  0  0  0  0  0999 V2000
  -11.3070  -21.5723   20.5141 C   0  0  0  0  0  0  0  0  0  0  0  0
  -12.5656  -22.6805   20.5271 C   0  0  0  0  0  0  0  0  0  0  0  0
  -12.3269  -22.7153   22.2739 N   0  0  0  0  0  0  0  0  0  0  0  0
  -13.3167  -22.9440   23.4198 C   0  0  0  0  0  0  0  0  0  0  0  0
  -14.4954  -23.0666   23.4044 O   0  0  0  0  0  0  0  0  0  0  0  0
  -12.3164  -23.0808   24.5780 N   0  0  0  0  0  0  0  0  0  0  0  0
  -12.5076  -23.4872   25.9233 C   0  0  0  0  0  0  0  0  0  0  0  0
  -11.8392  -22.7884   26.9422 C   0  0  0  0  0  0  0  0  0  0  0  0
  -11.6016  -23.2707   28.2238 C   0  0  0  0  0  0  0  0  0  0  0  0
  -11.8989  -24.6030   28.4154 C   0  0  0  0  0  0  0  0  0  0  0  0
  -11.6354  -25.4007   29.5005 N   0  0  0  0  0  0  0  0  0  0  0  0
  -12.0017  -26.6849   29.2203 C   0  0  0  0  0  0  0  0  0  0  0  0
  -12.6186  -26.6833   27.9919 C   0  0  0  0  0  0  0  0  0  0  0  0
  -12.5336  -25.3785   27.4457 C   0  0  0  0  0  0  0  0  0  0  0  0
  -12.9012  -24.7994   26.2014 C   0  0  0  0  0  0  0  0  0  0  0  0
  -13.1497  -23.9682   19.1938 C   0  0  0  0  0  0  0  0  0  0  0  0
  -13.5354  -25.2588   19.1847 C   0  0  0  0  0  0  0  0  0  0  0  0
  -13.5318  -26.1678   17.9057 C   0  0  0  0  0  0  0  0  0  0  0  0
  -13.6786  -25.7291   16.6344 C   0  0  0  0  0  0  0  0  0  0  0  0
  -13.9419  -24.4699   16.5888 N   0  0  0  0  0  0  0  0  0  0  0  0
  -13.7530  -23.7854   17.8458 C   0  0  0  0  0  0  0  0  0  0  0  0
  -11.4439  -20.6074   20.0349 H   0  0  0  0  0  0  0  0  0  0  0  0
  -11.0941  -21.1617   21.5134 H   0  0  0  0  0  0  0  0  0  0  0  0
  -10.3506  -22.0283   20.2532 H   0  0  0  0  0  0  0  0  0  0  0  0
  -11.7893  -23.4211   20.5124 H   0  0  0  0  0  0  0  0  0  0  0  0
  -11.4038  -22.5744   22.6505 H   0  0  0  0  0  0  0  0  0  0  0  0
  -11.3890  -22.9924   24.2276 H   0  0  0  0  0  0  0  0  0  0  0  0
  -11.5269  -21.7672   26.7509 H   0  0  0  0  0  0  0  0  0  0  0  0
  -11.1313  -22.6553   28.9783 H   0  0  0  0  0  0  0  0  0  0  0  0
  -11.1957  -25.0933   30.3588 H   0  0  0  0  0  0  0  0  0  0  0  0
  -11.8435  -27.4626   29.9526 H   0  0  0  0  0  0  0  0  0  0  0  0
  -13.0801  -27.5356   27.5310 H   0  0  0  0  0  0  0  0  0  0  0  0
  -13.3511  -25.4207   25.4349 H   0  0  0  0  0  0  0  0  0  0  0  0
  -13.9667  -25.6498   20.0950 H   0  0  0  0  0  0  0  0  0  0  0  0
  -13.1962  -27.1976   17.9367 H   0  0  0  0  0  0  0  0  0  0  0  0
  -13.6341  -26.3218   15.7373 H   0  0  0  0  0  0  0  0  0  0  0  0
  -14.8337  -23.6057   17.8627 H   0  0  0  0  0  0  0  0  0  0  0  0
  1  2  1  0
  2  3  1  0
  3  4  1  0
  4  5  2  0
  4  6  1  0
  6  7  1  0
  7  8  2  0
  8  9  1  0
  9 10  2  0
 10 11  1  0
 11 12  1  0
 12 13  2  0
 13 14  1  0
 14 15  2  0
  2 16  1  0
 16 17  2  0
 17 18  1  0
 18 19  2  0
 19 20  1  0
 20 21  2  0
 15  7  1  0
 21 16  1  0
 14 10  1  0
  1 22  1  0
  1 23  1  0
  1 24  1  0
  2 25  1  0
  3 26  1  0
  6 27  1  0
  8 28  1  0
  9 29  1  0
 11 30  1  0
 12 31  1  0
 13 32  1  0
 15 33  1  0
 17 34  1  0
 18 35  1  0
 19 36  1  0
 21 37  1  0
M  END
>  <Energy>  (662) 
283.96651714318085

>  <compound_id>  (662) 
5644

>  <target_id>  (662) 
1

>  <reference_id>  (662) 
39

>  <inspiration_ids>  (662) 
[48, 39]

>  <energy_score>  (662) 
305.2668809038826

>  <distance_score>  (662) 
7.1961255015026735

>  <path>  (662) 
/opt/xchem-fragalysis-2/maxwin/BulkDock/SCRATCH/511018/C5644-P39/C5644-P39.minimised.mol

>  <scratch_subdir>  (662) 
/opt/xchem-fragalysis-2/maxwin/BulkDock/SCRATCH/511018/C5644-P39

>  <fragmenstein_runtime>  (662) 
10.639094114303589

>  <fragmenstein_outcome>  (662) 
too moved

>  <fragmenstein_mode>  (662) 
expansion

>  <fragmenstein_error>  (662) 


$$$$
C5645-P48
     RDKit          3D

 40 42  0  0  0  0  0  0  0  0999 V2000
  -13.3138  -27.6765   19.3601 C   0  0  0  0  0  0  0  0  0  0  0  0
  -14.0359  -26.4492   20.4404 C   0  0  0  0  0  0  0  0  0  0  0  0
  -14.1563  -26.7003   22.4503 N   0  0  0  0  0  0  0  0  0  0  0  0
  -14.0284  -25.5746   23.7499 C   0  0  0  0  0  0  0  0  0  0  0  0
  -13.9274  -24.3856   23.7346 O   0  0  0  0  0  0  0  0  0  0  0  0
  -13.9647  -26.5419   24.8983 N   0  0  0  0  0  0  0  0  0  0  0  0
  -13.6718  -26.3367   26.2422 C   0  0  0  0  0  0  0  0  0  0  0  0
  -12.9218  -25.1852   26.5676 C   0  0  0  0  0  0  0  0  0  0  0  0
  -12.2290  -25.0475   27.7716 C   0  0  0  0  0  0  0  0  0  0  0  0
  -12.3069  -26.1150   28.6550 C   0  0  0  0  0  0  0  0  0  0  0  0
  -11.7502  -26.2541   29.9035 N   0  0  0  0  0  0  0  0  0  0  0  0
  -12.0426  -27.4922   30.4039 C   0  0  0  0  0  0  0  0  0  0  0  0
  -12.8349  -28.1455   29.4875 C   0  0  0  0  0  0  0  0  0  0  0  0
  -13.0261  -27.2782   28.3787 C   0  0  0  0  0  0  0  0  0  0  0  0
  -13.7208  -27.3947   27.1512 C   0  0  0  0  0  0  0  0  0  0  0  0
  -15.2044  -26.5011   19.2820 C   0  0  0  0  0  0  0  0  0  0  0  0
  -16.3014  -27.3427   19.1733 C   0  0  0  0  0  0  0  0  0  0  0  0
  -16.9444  -27.4573   17.9152 C   0  0  0  0  0  0  0  0  0  0  0  0
  -16.4960  -26.7398   16.7862 C   0  0  0  0  0  0  0  0  0  0  0  0
  -17.1623  -26.9209   15.4293 C   0  0  0  0  0  0  0  0  0  0  0  0
  -18.3983  -26.3469   15.3679 F   0  0  0  0  0  0  0  0  0  0  0  0
  -16.4479  -26.3992   14.3831 F   0  0  0  0  0  0  0  0  0  0  0  0
  -17.3572  -28.2382   15.1201 F   0  0  0  0  0  0  0  0  0  0  0  0
  -15.4624  -25.8772   16.8736 N   0  0  0  0  0  0  0  0  0  0  0  0
  -14.8657  -25.7800   18.0774 C   0  0  0  0  0  0  0  0  0  0  0  0
  -12.4262  -28.2212   19.6350 H   0  0  0  0  0  0  0  0  0  0  0  0
  -14.0217  -28.4629   19.0617 H   0  0  0  0  0  0  0  0  0  0  0  0
  -12.9707  -27.1746   18.4426 H   0  0  0  0  0  0  0  0  0  0  0  0
  -13.4811  -25.5189   20.2297 H   0  0  0  0  0  0  0  0  0  0  0  0
  -14.1440  -27.5658   22.7843 H   0  0  0  0  0  0  0  0  0  0  0  0
  -14.1704  -27.4521   24.5702 H   0  0  0  0  0  0  0  0  0  0  0  0
  -12.8869  -24.3283   25.8969 H   0  0  0  0  0  0  0  0  0  0  0  0
  -11.6854  -24.1363   28.0048 H   0  0  0  0  0  0  0  0  0  0  0  0
  -11.2021  -25.5443   30.3723 H   0  0  0  0  0  0  0  0  0  0  0  0
  -11.6756  -27.7979   31.3752 H   0  0  0  0  0  0  0  0  0  0  0  0
  -13.2374  -29.1430   29.6096 H   0  0  0  0  0  0  0  0  0  0  0  0
  -14.2370  -28.3200   26.9190 H   0  0  0  0  0  0  0  0  0  0  0  0
  -16.6285  -27.9531   20.0088 H   0  0  0  0  0  0  0  0  0  0  0  0
  -17.7886  -28.1378   17.8129 H   0  0  0  0  0  0  0  0  0  0  0  0
  -14.0225  -25.0911   18.0752 H   0  0  0  0  0  0  0  0  0  0  0  0
  1  2  1  0
  2  3  1  0
  3  4  1  0
  4  5  2  0
  4  6  1  0
  6  7  1  0
  7  8  2  0
  8  9  1  0
  9 10  2  0
 10 11  1  0
 11 12  1  0
 12 13  2  0
 13 14  1  0
 14 15  2  0
  2 16  1  0
 16 17  2  0
 17 18  1  0
 18 19  2  0
 19 20  1  0
 20 21  1  0
 20 22  1  0
 20 23  1  0
 19 24  1  0
 24 25  2  0
 15  7  1  0
 25 16  1  0
 14 10  1  0
  1 26  1  0
  1 27  1  0
  1 28  1  0
  2 29  1  0
  3 30  1  0
  6 31  1  0
  8 32  1  0
  9 33  1  0
 11 34  1  0
 12 35  1  0
 13 36  1  0
 15 37  1  0
 17 38  1  0
 18 39  1  0
 25 40  1  0
M  END
>  <Energy>  (663) 
226.42707339586158

>  <compound_id>  (663) 
5645

>  <target_id>  (663) 
1

>  <reference_id>  (663) 
48

>  <inspiration_ids>  (663) 
[48, 39]

>  <energy_score>  (663) 
158.99984632037257

>  <distance_score>  (663) 
7.7599769740894855

>  <path>  (663) 
/opt/xchem-fragalysis-2/maxwin/BulkDock/SCRATCH/511018/C5645-P48/C5645-P48.minimised.mol

>  <scratch_subdir>  (663) 
/opt/xchem-fragalysis-2/maxwin/BulkDock/SCRATCH/511018/C5645-P48

>  <fragmenstein_runtime>  (663) 
8.737471103668213

>  <fragmenstein_outcome>  (663) 
too moved

>  <fragmenstein_mode>  (663) 
expansion

>  <fragmenstein_error>  (663) 


$$$$
C5645-P39
     RDKit          3D

 40 42  0  0  0  0  0  0  0  0999 V2000
  -12.5458  -26.2800   17.6405 C   0  0  0  0  0  0  0  0  0  0  0  0
  -10.8588  -26.8721   18.2048 C   0  0  0  0  0  0  0  0  0  0  0  0
  -10.6518  -26.4562   20.2451 N   0  0  0  0  0  0  0  0  0  0  0  0
  -10.9335  -27.5740   21.7839 C   0  0  0  0  0  0  0  0  0  0  0  0
  -11.0665  -28.6718   21.5470 O   0  0  0  0  0  0  0  0  0  0  0  0
  -11.2795  -26.8142   23.6453 N   0  0  0  0  0  0  0  0  0  0  0  0
  -11.7519  -27.3614   24.7436 C   0  0  0  0  0  0  0  0  0  0  0  0
  -10.9900  -26.8493   25.8393 C   0  0  0  0  0  0  0  0  0  0  0  0
  -11.2094  -25.5713   26.4549 C   0  0  0  0  0  0  0  0  0  0  0  0
  -12.3384  -24.8957   26.0066 C   0  0  0  0  0  0  0  0  0  0  0  0
  -12.6898  -23.5875   25.8453 N   0  0  0  0  0  0  0  0  0  0  0  0
  -13.8117  -23.5404   25.0230 C   0  0  0  0  0  0  0  0  0  0  0  0
  -14.4526  -24.7384   25.1267 C   0  0  0  0  0  0  0  0  0  0  0  0
  -13.3774  -25.5775   25.4135 C   0  0  0  0  0  0  0  0  0  0  0  0
  -13.0859  -26.8075   24.8736 C   0  0  0  0  0  0  0  0  0  0  0  0
  -10.6410  -27.0953   16.4530 C   0  0  0  0  0  0  0  0  0  0  0  0
  -11.4793  -28.0977   15.8490 C   0  0  0  0  0  0  0  0  0  0  0  0
  -11.6721  -28.2125   14.4609 C   0  0  0  0  0  0  0  0  0  0  0  0
  -10.9986  -27.3486   13.6162 C   0  0  0  0  0  0  0  0  0  0  0  0
  -11.2563  -27.3504   12.1184 C   0  0  0  0  0  0  0  0  0  0  0  0
  -12.3620  -28.0796   11.7712 F   0  0  0  0  0  0  0  0  0  0  0  0
  -11.4768  -26.1036   11.6018 F   0  0  0  0  0  0  0  0  0  0  0  0
  -10.2325  -27.8865   11.3943 F   0  0  0  0  0  0  0  0  0  0  0  0
  -10.0806  -26.4998   14.1241 N   0  0  0  0  0  0  0  0  0  0  0  0
   -9.9137  -26.4286   15.4828 C   0  0  0  0  0  0  0  0  0  0  0  0
  -13.1262  -25.6840   18.3599 H   0  0  0  0  0  0  0  0  0  0  0  0
  -12.5158  -25.7740   16.6628 H   0  0  0  0  0  0  0  0  0  0  0  0
  -13.2016  -27.1424   17.4334 H   0  0  0  0  0  0  0  0  0  0  0  0
  -11.7028  -27.6837   18.3048 H   0  0  0  0  0  0  0  0  0  0  0  0
  -10.6309  -25.5174   20.5364 H   0  0  0  0  0  0  0  0  0  0  0  0
  -11.0229  -25.8133   23.6897 H   0  0  0  0  0  0  0  0  0  0  0  0
  -10.0510  -27.3539   26.0497 H   0  0  0  0  0  0  0  0  0  0  0  0
  -10.4526  -25.1060   27.0756 H   0  0  0  0  0  0  0  0  0  0  0  0
  -12.1346  -22.7705   26.0675 H   0  0  0  0  0  0  0  0  0  0  0  0
  -14.1218  -22.6307   24.5264 H   0  0  0  0  0  0  0  0  0  0  0  0
  -15.3946  -24.9998   24.6679 H   0  0  0  0  0  0  0  0  0  0  0  0
  -13.9079  -27.1576   24.2715 H   0  0  0  0  0  0  0  0  0  0  0  0
  -12.0525  -28.7803   16.4782 H   0  0  0  0  0  0  0  0  0  0  0  0
  -12.3713  -28.9464   14.0698 H   0  0  0  0  0  0  0  0  0  0  0  0
   -9.0901  -25.7891   15.7086 H   0  0  0  0  0  0  0  0  0  0  0  0
  1  2  1  0
  2  3  1  0
  3  4  1  0
  4  5  2  0
  4  6  1  0
  6  7  1  0
  7  8  2  0
  8  9  1  0
  9 10  2  0
 10 11  1  0
 11 12  1  0
 12 13  2  0
 13 14  1  0
 14 15  2  0
  2 16  1  0
 16 17  2  0
 17 18  1  0
 18 19  2  0
 19 20  1  0
 20 21  1  0
 20 22  1  0
 20 23  1  0
 19 24  1  0
 24 25  2  0
 15  7  1  0
 25 16  1  0
 14 10  1  0
  1 26  1  0
  1 27  1  0
  1 28  1  0
  2 29  1  0
  3 30  1  0
  6 31  1  0
  8 32  1  0
  9 33  1  0
 11 34  1  0
 12 35  1  0
 13 36  1  0
 15 37  1  0
 17 38  1  0
 18 39  1  0
 25 40  1  0
M  END
>  <Energy>  (664) 
675.91539478823063

>  <compound_id>  (664) 
5645

>  <target_id>  (664) 
1

>  <reference_id>  (664) 
39

>  <inspiration_ids>  (664) 
[48, 39]

>  <energy_score>  (664) 
608.4881677127402

>  <distance_score>  (664) 
6.645100402637109

>  <path>  (664) 
/opt/xchem-fragalysis-2/maxwin/BulkDock/SCRATCH/511018/C5645-P39/C5645-P39.minimised.mol

>  <scratch_subdir>  (664) 
/opt/xchem-fragalysis-2/maxwin/BulkDock/SCRATCH/511018/C5645-P39

>  <fragmenstein_runtime>  (664) 
15.052033424377441

>  <fragmenstein_outcome>  (664) 
too moved

>  <fragmenstein_mode>  (664) 
expansion

>  <fragmenstein_error>  (664) 


$$$$
C5648-P48
     RDKit          3D

 40 43  0  0  0  0  0  0  0  0999 V2000
   -4.9933  -28.6002   23.0603 O   0  0  0  0  0  0  0  0  0  0  0  0
   -6.0192  -29.2674   22.9808 C   0  0  0  0  0  0  0  0  0  0  0  0
   -7.2170  -29.0091   23.9807 C   0  0  0  0  0  0  0  0  0  0  0  0
   -7.6980  -28.6175   25.7698 C   0  0  0  0  0  0  0  0  0  0  0  0
   -9.0752  -28.8605   26.9266 C   0  0  0  0  0  0  0  0  0  0  0  0
  -10.1240  -28.3128   26.3056 C   0  0  0  0  0  0  0  0  0  0  0  0
  -11.0609  -27.4507   26.9538 N   0  0  0  0  0  0  0  0  0  0  0  0
  -11.0811  -26.3956   26.0817 C   0  0  0  0  0  0  0  0  0  0  0  0
  -10.9747  -27.2633   24.9986 C   0  0  0  0  0  0  0  0  0  0  0  0
   -9.5855  -27.9140   24.7672 C   0  0  0  0  0  0  0  0  0  0  0  0
   -8.3209  -28.7218   23.4965 C   0  0  0  0  0  0  0  0  0  0  0  0
   -6.1198  -30.3608   22.0616 N   0  0  0  0  0  0  0  0  0  0  0  0
   -5.7252  -31.6989   22.4921 C   0  0  0  0  0  0  0  0  0  0  0  0
   -6.5253  -32.7747   21.7541 C   0  0  0  0  0  0  0  0  0  0  0  0
   -6.2963  -32.8022   20.3433 O   0  0  0  0  0  0  0  0  0  0  0  0
   -6.0664  -31.5123   19.7225 C   0  0  0  0  0  0  0  0  0  0  0  0
   -6.5828  -31.6236   18.2678 C   0  0  0  0  0  0  0  0  0  0  0  0
   -7.7385  -32.3458   17.9188 C   0  0  0  0  0  0  0  0  0  0  0  0
   -8.1878  -32.3968   16.5878 C   0  0  0  0  0  0  0  0  0  0  0  0
   -7.4706  -31.7206   15.6157 C   0  0  0  0  0  0  0  0  0  0  0  0
   -6.3366  -31.0497   15.8802 N   0  0  0  0  0  0  0  0  0  0  0  0
   -5.9207  -31.0284   17.1833 C   0  0  0  0  0  0  0  0  0  0  0  0
   -6.5997  -30.3161   20.6409 C   0  0  0  0  0  0  0  0  0  0  0  0
   -6.8871  -28.2063   26.4426 H   0  0  0  0  0  0  0  0  0  0  0  0
   -9.0678  -28.6560   28.0057 H   0  0  0  0  0  0  0  0  0  0  0  0
  -11.0773  -27.3603   27.9619 H   0  0  0  0  0  0  0  0  0  0  0  0
  -10.6389  -25.4500   26.3791 H   0  0  0  0  0  0  0  0  0  0  0  0
  -11.8582  -27.9268   25.0177 H   0  0  0  0  0  0  0  0  0  0  0  0
   -8.3085  -28.6856   22.4025 H   0  0  0  0  0  0  0  0  0  0  0  0
   -5.8592  -31.8181   23.5668 H   0  0  0  0  0  0  0  0  0  0  0  0
   -4.6574  -31.7975   22.2661 H   0  0  0  0  0  0  0  0  0  0  0  0
   -7.6004  -32.6359   21.9193 H   0  0  0  0  0  0  0  0  0  0  0  0
   -6.2626  -33.7641   22.1419 H   0  0  0  0  0  0  0  0  0  0  0  0
   -4.9741  -31.4194   19.6722 H   0  0  0  0  0  0  0  0  0  0  0  0
   -8.2926  -32.8791   18.6877 H   0  0  0  0  0  0  0  0  0  0  0  0
   -9.0696  -32.9681   16.3220 H   0  0  0  0  0  0  0  0  0  0  0  0
   -7.7774  -31.7239   14.5751 H   0  0  0  0  0  0  0  0  0  0  0  0
   -4.9872  -30.4955   17.3221 H   0  0  0  0  0  0  0  0  0  0  0  0
   -6.3106  -29.3537   20.2265 H   0  0  0  0  0  0  0  0  0  0  0  0
   -7.6866  -30.3865   20.7011 H   0  0  0  0  0  0  0  0  0  0  0  0
  1  2  2  0
  2  3  1  0
  3  4  2  0
  4  5  1  0
  5  6  2  0
  6  7  1  0
  7  8  1  0
  8  9  2  0
  9 10  1  0
 10 11  2  0
  2 12  1  0
 12 13  1  0
 13 14  1  0
 14 15  1  0
 15 16  1  0
 16 17  1  0
 17 18  2  0
 18 19  1  0
 19 20  2  0
 20 21  1  0
 21 22  2  0
 16 23  1  0
 11  3  1  0
 23 12  1  0
 10  6  1  0
 22 17  1  0
  4 24  1  0
  5 25  1  0
  7 26  1  0
  8 27  1  0
  9 28  1  0
 11 29  1  0
 13 30  1  0
 13 31  1  0
 14 32  1  0
 14 33  1  0
 16 34  1  0
 18 35  1  0
 19 36  1  0
 20 37  1  0
 22 38  1  0
 23 39  1  0
 23 40  1  0
M  END
>  <Energy>  (665) 
581.27337145165927

>  <compound_id>  (665) 
5648

>  <target_id>  (665) 
1

>  <reference_id>  (665) 
48

>  <inspiration_ids>  (665) 
[48, 39]

>  <energy_score>  (665) 
451.59737200230035

>  <distance_score>  (665) 
9.763946926484651

>  <path>  (665) 
/opt/xchem-fragalysis-2/maxwin/BulkDock/SCRATCH/511018/C5648-P48/C5648-P48.minimised.mol

>  <scratch_subdir>  (665) 
/opt/xchem-fragalysis-2/maxwin/BulkDock/SCRATCH/511018/C5648-P48

>  <fragmenstein_runtime>  (665) 
6.47176718711853

>  <fragmenstein_outcome>  (665) 
too moved

>  <fragmenstein_mode>  (665) 
expansion

>  <fragmenstein_error>  (665) 


$$$$
C5648-P39
     RDKit          3D

 40 43  0  0  0  0  0  0  0  0999 V2000
  -12.7034  -27.8538   23.7532 O   0  0  0  0  0  0  0  0  0  0  0  0
  -11.8859  -27.2742   23.1919 C   0  0  0  0  0  0  0  0  0  0  0  0
  -11.4093  -25.8848   24.2850 C   0  0  0  0  0  0  0  0  0  0  0  0
  -12.5645  -25.3161   25.0142 C   0  0  0  0  0  0  0  0  0  0  0  0
  -12.5623  -24.4831   26.1343 C   0  0  0  0  0  0  0  0  0  0  0  0
  -11.5966  -24.7971   27.0427 C   0  0  0  0  0  0  0  0  0  0  0  0
  -11.4058  -24.3709   28.3307 N   0  0  0  0  0  0  0  0  0  0  0  0
  -10.4697  -25.1618   28.9287 C   0  0  0  0  0  0  0  0  0  0  0  0
  -10.0193  -26.0525   27.9829 C   0  0  0  0  0  0  0  0  0  0  0  0
  -10.7227  -25.8331   26.7676 C   0  0  0  0  0  0  0  0  0  0  0  0
  -10.7329  -26.4040   25.4222 C   0  0  0  0  0  0  0  0  0  0  0  0
  -11.2711  -28.2348   21.4577 N   0  0  0  0  0  0  0  0  0  0  0  0
  -10.3359  -29.0877   21.2608 C   0  0  0  0  0  0  0  0  0  0  0  0
  -10.5003  -27.2598   20.1886 C   0  0  0  0  0  0  0  0  0  0  0  0
  -10.9064  -26.7997   18.4141 O   0  0  0  0  0  0  0  0  0  0  0  0
  -12.1011  -27.3326   17.9719 C   0  0  0  0  0  0  0  0  0  0  0  0
  -12.0655  -27.7605   16.5101 C   0  0  0  0  0  0  0  0  0  0  0  0
  -11.2136  -27.1469   15.5742 C   0  0  0  0  0  0  0  0  0  0  0  0
  -11.3385  -27.3870   14.2052 C   0  0  0  0  0  0  0  0  0  0  0  0
  -12.3420  -28.2345   13.7872 C   0  0  0  0  0  0  0  0  0  0  0  0
  -13.1966  -28.8420   14.6376 N   0  0  0  0  0  0  0  0  0  0  0  0
  -13.0404  -28.5874   15.9642 C   0  0  0  0  0  0  0  0  0  0  0  0
  -11.9192  -28.2242   19.3530 C   0  0  0  0  0  0  0  0  0  0  0  0
  -13.5682  -25.4614   24.5844 H   0  0  0  0  0  0  0  0  0  0  0  0
  -13.3842  -23.8392   26.3512 H   0  0  0  0  0  0  0  0  0  0  0  0
  -11.9385  -23.6465   28.7925 H   0  0  0  0  0  0  0  0  0  0  0  0
  -10.1931  -25.0242   29.9661 H   0  0  0  0  0  0  0  0  0  0  0  0
   -9.2166  -26.7469   28.1582 H   0  0  0  0  0  0  0  0  0  0  0  0
  -10.2183  -27.3581   25.3386 H   0  0  0  0  0  0  0  0  0  0  0  0
  -10.5147  -29.9696   20.6591 H   0  0  0  0  0  0  0  0  0  0  0  0
   -9.5542  -29.1064   22.0350 H   0  0  0  0  0  0  0  0  0  0  0  0
  -10.8214  -26.5244   20.9012 H   0  0  0  0  0  0  0  0  0  0  0  0
   -9.9327  -26.2963   20.4029 H   0  0  0  0  0  0  0  0  0  0  0  0
  -12.9282  -26.6015   17.9991 H   0  0  0  0  0  0  0  0  0  0  0  0
  -10.4457  -26.4519   15.9021 H   0  0  0  0  0  0  0  0  0  0  0  0
  -10.6733  -26.9097   13.4938 H   0  0  0  0  0  0  0  0  0  0  0  0
  -12.4919  -28.4551   12.7347 H   0  0  0  0  0  0  0  0  0  0  0  0
  -13.7876  -29.0668   16.5903 H   0  0  0  0  0  0  0  0  0  0  0  0
  -12.6274  -28.9905   18.8875 H   0  0  0  0  0  0  0  0  0  0  0  0
  -11.4590  -29.2922   19.1312 H   0  0  0  0  0  0  0  0  0  0  0  0
  1  2  2  0
  2  3  1  0
  3  4  2  0
  4  5  1  0
  5  6  2  0
  6  7  1  0
  7  8  1  0
  8  9  2  0
  9 10  1  0
 10 11  2  0
  2 12  1  0
 12 13  1  0
 13 14  1  0
 14 15  1  0
 15 16  1  0
 16 17  1  0
 17 18  2  0
 18 19  1  0
 19 20  2  0
 20 21  1  0
 21 22  2  0
 16 23  1  0
 11  3  1  0
 23 12  1  0
 10  6  1  0
 22 17  1  0
  4 24  1  0
  5 25  1  0
  7 26  1  0
  8 27  1  0
  9 28  1  0
 11 29  1  0
 13 30  1  0
 13 31  1  0
 14 32  1  0
 14 33  1  0
 16 34  1  0
 18 35  1  0
 19 36  1  0
 20 37  1  0
 22 38  1  0
 23 39  1  0
 23 40  1  0
M  END
>  <Energy>  (666) 
1086.9741106273157

>  <compound_id>  (666) 
5648

>  <target_id>  (666) 
1

>  <reference_id>  (666) 
39

>  <inspiration_ids>  (666) 
[48, 39]

>  <energy_score>  (666) 
957.2981111779711

>  <distance_score>  (666) 
6.706412031245032

>  <path>  (666) 
/opt/xchem-fragalysis-2/maxwin/BulkDock/SCRATCH/511018/C5648-P39/C5648-P39.minimised.mol

>  <scratch_subdir>  (666) 
/opt/xchem-fragalysis-2/maxwin/BulkDock/SCRATCH/511018/C5648-P39

>  <fragmenstein_runtime>  (666) 
8.755343437194824

>  <fragmenstein_outcome>  (666) 
too moved

>  <fragmenstein_mode>  (666) 
expansion

>  <fragmenstein_error>  (666) 


$$$$
C5649-P48
     RDKit          3D

 36 38  0  0  0  0  0  0  0  0999 V2000
  -15.1019  -26.6910   19.4947 C   0  0  0  0  0  0  0  0  0  0  0  0
  -13.7562  -25.8598   19.4924 C   0  0  0  0  0  0  0  0  0  0  0  0
  -13.2229  -26.1694   18.3030 C   0  0  0  0  0  0  0  0  0  0  0  0
  -11.9850  -26.0461   18.6971 C   0  0  0  0  0  0  0  0  0  0  0  0
  -11.5659  -24.9368   20.0087 C   0  0  0  0  0  0  0  0  0  0  0  0
  -11.0917  -25.3082   21.2267 C   0  0  0  0  0  0  0  0  0  0  0  0
  -10.5523  -26.7557   22.6459 N   0  0  0  0  0  0  0  0  0  0  0  0
  -10.9762  -26.8256   24.6034 C   0  0  0  0  0  0  0  0  0  0  0  0
  -11.5427  -25.9159   25.1697 O   0  0  0  0  0  0  0  0  0  0  0  0
  -10.5895  -27.8259   25.5895 C   0  0  0  0  0  0  0  0  0  0  0  0
  -11.2249  -28.0700   26.8041 C   0  0  0  0  0  0  0  0  0  0  0  0
  -12.0987  -27.2737   27.6939 C   0  0  0  0  0  0  0  0  0  0  0  0
  -13.3701  -27.7819   27.9837 C   0  0  0  0  0  0  0  0  0  0  0  0
  -14.1595  -27.2525   29.0094 C   0  0  0  0  0  0  0  0  0  0  0  0
  -13.6007  -26.2298   29.7737 C   0  0  0  0  0  0  0  0  0  0  0  0
  -14.0913  -25.5794   30.8823 N   0  0  0  0  0  0  0  0  0  0  0  0
  -13.1707  -24.6817   31.3465 C   0  0  0  0  0  0  0  0  0  0  0  0
  -12.0947  -24.7124   30.4936 C   0  0  0  0  0  0  0  0  0  0  0  0
  -12.3493  -25.6856   29.4988 C   0  0  0  0  0  0  0  0  0  0  0  0
  -11.6105  -26.1763   28.4092 C   0  0  0  0  0  0  0  0  0  0  0  0
  -12.8596  -25.2570   20.8381 N   0  0  0  0  0  0  0  0  0  0  0  0
  -14.8660  -27.7455   19.2946 H   0  0  0  0  0  0  0  0  0  0  0  0
  -15.7635  -26.6853   20.3569 H   0  0  0  0  0  0  0  0  0  0  0  0
  -15.7157  -26.3688   18.6397 H   0  0  0  0  0  0  0  0  0  0  0  0
  -13.6137  -26.7538   17.4953 H   0  0  0  0  0  0  0  0  0  0  0  0
  -11.2437  -26.7003   18.2552 H   0  0  0  0  0  0  0  0  0  0  0  0
  -12.2306  -23.9459   20.1087 H   0  0  0  0  0  0  0  0  0  0  0  0
  -10.1826  -27.6150   22.3668 H   0  0  0  0  0  0  0  0  0  0  0  0
  -10.2391  -26.8851   26.0710 H   0  0  0  0  0  0  0  0  0  0  0  0
  -10.8878  -28.9366   27.3882 H   0  0  0  0  0  0  0  0  0  0  0  0
  -13.7486  -28.6458   27.4402 H   0  0  0  0  0  0  0  0  0  0  0  0
  -15.1318  -27.6747   29.2430 H   0  0  0  0  0  0  0  0  0  0  0  0
  -14.9869  -25.7649   31.3114 H   0  0  0  0  0  0  0  0  0  0  0  0
  -13.3672  -24.0839   32.2258 H   0  0  0  0  0  0  0  0  0  0  0  0
  -11.2136  -24.1043   30.5833 H   0  0  0  0  0  0  0  0  0  0  0  0
  -10.6454  -25.7383   28.1954 H   0  0  0  0  0  0  0  0  0  0  0  0
  1  2  1  0
  2  3  2  0
  3  4  1  0
  4  5  2  0
  5  6  1  0
  6  7  1  0
  7  8  1  0
  8  9  2  0
  8 10  1  0
 10 11  2  3
 11 12  1  0
 12 13  2  0
 13 14  1  0
 14 15  2  0
 15 16  1  0
 16 17  1  0
 17 18  2  0
 18 19  1  0
 19 20  2  0
  6 21  2  0
 21  2  1  0
 20 12  1  0
 19 15  1  0
  1 22  1  0
  1 23  1  0
  1 24  1  0
  3 25  1  0
  4 26  1  0
  5 27  1  0
  7 28  1  0
 10 29  1  0
 11 30  1  0
 13 31  1  0
 14 32  1  0
 16 33  1  0
 17 34  1  0
 18 35  1  0
 20 36  1  0
M  END
>  <Energy>  (667) 
788.62617679486175

>  <compound_id>  (667) 
5649

>  <target_id>  (667) 
1

>  <reference_id>  (667) 
48

>  <inspiration_ids>  (667) 
[48, 39]

>  <energy_score>  (667) 
773.7339135258431

>  <distance_score>  (667) 
7.916366934177552

>  <path>  (667) 
/opt/xchem-fragalysis-2/maxwin/BulkDock/SCRATCH/511018/C5649-P48/C5649-P48.minimised.mol

>  <scratch_subdir>  (667) 
/opt/xchem-fragalysis-2/maxwin/BulkDock/SCRATCH/511018/C5649-P48

>  <fragmenstein_runtime>  (667) 
6.399895191192627

>  <fragmenstein_outcome>  (667) 
too moved

>  <fragmenstein_mode>  (667) 
expansion

>  <fragmenstein_error>  (667) 


$$$$
C5649-P39
     RDKit          3D

 36 38  0  0  0  0  0  0  0  0999 V2000
  -15.0873  -25.0883   11.0773 C   0  0  0  0  0  0  0  0  0  0  0  0
  -13.8944  -25.6026   11.8257 C   0  0  0  0  0  0  0  0  0  0  0  0
  -12.7513  -25.9904   11.1374 C   0  0  0  0  0  0  0  0  0  0  0  0
  -11.6694  -26.4549   11.8728 C   0  0  0  0  0  0  0  0  0  0  0  0
  -11.7655  -26.5211   13.2632 C   0  0  0  0  0  0  0  0  0  0  0  0
  -12.9461  -26.1250   13.8844 C   0  0  0  0  0  0  0  0  0  0  0  0
  -13.0025  -26.1850   15.2769 N   0  0  0  0  0  0  0  0  0  0  0  0
  -14.0570  -25.8456   16.1934 C   0  0  0  0  0  0  0  0  0  0  0  0
  -15.1849  -25.4989   15.9957 O   0  0  0  0  0  0  0  0  0  0  0  0
  -13.5621  -25.9562   17.6125 C   0  0  0  0  0  0  0  0  0  0  0  0
  -13.6497  -24.8631   18.4091 C   0  0  0  0  0  0  0  0  0  0  0  0
  -13.2485  -24.3803   19.7885 C   0  0  0  0  0  0  0  0  0  0  0  0
  -14.0083  -24.6232   20.9212 C   0  0  0  0  0  0  0  0  0  0  0  0
  -13.9496  -23.6278   22.4147 C   0  0  0  0  0  0  0  0  0  0  0  0
  -12.9579  -22.6280   22.4996 C   0  0  0  0  0  0  0  0  0  0  0  0
  -12.4114  -21.8496   23.4599 N   0  0  0  0  0  0  0  0  0  0  0  0
  -11.3701  -21.1868   22.8672 C   0  0  0  0  0  0  0  0  0  0  0  0
  -11.1610  -21.6013   21.5989 C   0  0  0  0  0  0  0  0  0  0  0  0
  -12.2160  -22.4288   21.3214 C   0  0  0  0  0  0  0  0  0  0  0  0
  -12.6019  -23.1028   20.0987 C   0  0  0  0  0  0  0  0  0  0  0  0
  -13.9962  -25.6663   13.1788 N   0  0  0  0  0  0  0  0  0  0  0  0
  -15.4711  -25.8596   10.4026 H   0  0  0  0  0  0  0  0  0  0  0  0
  -15.8895  -24.8080   11.7675 H   0  0  0  0  0  0  0  0  0  0  0  0
  -14.8157  -24.2027   10.4945 H   0  0  0  0  0  0  0  0  0  0  0  0
  -12.6988  -25.9279   10.0558 H   0  0  0  0  0  0  0  0  0  0  0  0
  -10.7529  -26.7557   11.3727 H   0  0  0  0  0  0  0  0  0  0  0  0
  -10.9151  -26.8705   13.8391 H   0  0  0  0  0  0  0  0  0  0  0  0
  -12.2041  -26.5124   15.7996 H   0  0  0  0  0  0  0  0  0  0  0  0
  -13.0448  -26.8668   17.8518 H   0  0  0  0  0  0  0  0  0  0  0  0
  -14.0437  -24.0185   17.8382 H   0  0  0  0  0  0  0  0  0  0  0  0
  -14.5771  -25.5605   20.9517 H   0  0  0  0  0  0  0  0  0  0  0  0
  -14.4154  -24.0099   23.3285 H   0  0  0  0  0  0  0  0  0  0  0  0
  -12.7456  -21.7335   24.4154 H   0  0  0  0  0  0  0  0  0  0  0  0
  -10.7872  -20.4573   23.3719 H   0  0  0  0  0  0  0  0  0  0  0  0
  -10.3678  -21.3658   20.9134 H   0  0  0  0  0  0  0  0  0  0  0  0
  -12.5323  -22.3955   19.2787 H   0  0  0  0  0  0  0  0  0  0  0  0
  1  2  1  0
  2  3  2  0
  3  4  1  0
  4  5  2  0
  5  6  1  0
  6  7  1  0
  7  8  1  0
  8  9  2  0
  8 10  1  0
 10 11  2  3
 11 12  1  0
 12 13  2  0
 13 14  1  0
 14 15  2  0
 15 16  1  0
 16 17  1  0
 17 18  2  0
 18 19  1  0
 19 20  2  0
  6 21  2  0
 21  2  1  0
 20 12  1  0
 19 15  1  0
  1 22  1  0
  1 23  1  0
  1 24  1  0
  3 25  1  0
  4 26  1  0
  5 27  1  0
  7 28  1  0
 10 29  1  0
 11 30  1  0
 13 31  1  0
 14 32  1  0
 16 33  1  0
 17 34  1  0
 18 35  1  0
 20 36  1  0
M  END
>  <Energy>  (668) 
83.500692228962478

>  <compound_id>  (668) 
5649

>  <target_id>  (668) 
1

>  <reference_id>  (668) 
39

>  <inspiration_ids>  (668) 
[48, 39]

>  <energy_score>  (668) 
68.60842895993471

>  <distance_score>  (668) 
8.783061515864775

>  <path>  (668) 
/opt/xchem-fragalysis-2/maxwin/BulkDock/SCRATCH/511018/C5649-P39/C5649-P39.minimised.mol

>  <scratch_subdir>  (668) 
/opt/xchem-fragalysis-2/maxwin/BulkDock/SCRATCH/511018/C5649-P39

>  <fragmenstein_runtime>  (668) 
9.802020788192749

>  <fragmenstein_outcome>  (668) 
too moved

>  <fragmenstein_mode>  (668) 
expansion

>  <fragmenstein_error>  (668) 


$$$$
C5650-P48
     RDKit          3D

 41 43  0  0  0  0  0  0  0  0999 V2000
  -12.8353  -27.6584   11.9153 C   0  0  0  0  0  0  0  0  0  0  0  0
  -12.3166  -26.6032   12.7828 N   0  0  0  0  0  0  0  0  0  0  0  0
  -11.1519  -25.8775   12.2778 C   0  0  0  0  0  0  0  0  0  0  0  0
  -12.4845  -26.7368   14.1626 C   0  0  0  0  0  0  0  0  0  0  0  0
  -13.5370  -27.4606   14.7335 C   0  0  0  0  0  0  0  0  0  0  0  0
  -13.7349  -27.5158   16.1297 C   0  0  0  0  0  0  0  0  0  0  0  0
  -12.8753  -26.8308   16.9724 C   0  0  0  0  0  0  0  0  0  0  0  0
  -13.0732  -26.7120   18.3532 N   0  0  0  0  0  0  0  0  0  0  0  0
  -14.0536  -27.2846   19.2099 C   0  0  0  0  0  0  0  0  0  0  0  0
  -14.9209  -28.0830   18.9864 O   0  0  0  0  0  0  0  0  0  0  0  0
  -13.9754  -26.5726   20.7802 C   0  0  0  0  0  0  0  0  0  0  0  0
  -14.3941  -26.7567   22.5122 C   0  0  0  0  0  0  0  0  0  0  0  0
  -14.2843  -26.1272   24.1560 C   0  0  0  0  0  0  0  0  0  0  0  0
  -14.0472  -24.7932   24.5731 C   0  0  0  0  0  0  0  0  0  0  0  0
  -13.3454  -24.4392   25.7591 C   0  0  0  0  0  0  0  0  0  0  0  0
  -12.9089  -25.4684   26.5790 C   0  0  0  0  0  0  0  0  0  0  0  0
  -12.1467  -25.4436   27.7219 N   0  0  0  0  0  0  0  0  0  0  0  0
  -12.1429  -26.6917   28.2854 C   0  0  0  0  0  0  0  0  0  0  0  0
  -12.9134  -27.5201   27.4984 C   0  0  0  0  0  0  0  0  0  0  0  0
  -13.3785  -26.7598   26.3916 C   0  0  0  0  0  0  0  0  0  0  0  0
  -14.1764  -27.0336   25.2430 C   0  0  0  0  0  0  0  0  0  0  0  0
  -11.8366  -26.1487   16.4685 N   0  0  0  0  0  0  0  0  0  0  0  0
  -11.6678  -26.1203   15.1113 C   0  0  0  0  0  0  0  0  0  0  0  0
  -12.4164  -28.6334   12.1881 H   0  0  0  0  0  0  0  0  0  0  0  0
  -12.5799  -27.4715   10.8661 H   0  0  0  0  0  0  0  0  0  0  0  0
  -13.9284  -27.7057   11.9573 H   0  0  0  0  0  0  0  0  0  0  0  0
  -11.1078  -24.8619   12.6867 H   0  0  0  0  0  0  0  0  0  0  0  0
  -11.2038  -25.7627   11.1892 H   0  0  0  0  0  0  0  0  0  0  0  0
  -10.2240  -26.4094   12.5151 H   0  0  0  0  0  0  0  0  0  0  0  0
  -14.2632  -27.9758   14.1121 H   0  0  0  0  0  0  0  0  0  0  0  0
  -14.5866  -28.0630   16.5198 H   0  0  0  0  0  0  0  0  0  0  0  0
  -12.4506  -26.1367   18.9047 H   0  0  0  0  0  0  0  0  0  0  0  0
  -15.0966  -26.6576   20.3871 H   0  0  0  0  0  0  0  0  0  0  0  0
  -15.4794  -27.0747   22.5616 H   0  0  0  0  0  0  0  0  0  0  0  0
  -14.1621  -23.9145   23.9494 H   0  0  0  0  0  0  0  0  0  0  0  0
  -13.0851  -23.3986   25.9506 H   0  0  0  0  0  0  0  0  0  0  0  0
  -11.7201  -24.6137   28.1194 H   0  0  0  0  0  0  0  0  0  0  0  0
  -11.6122  -26.8770   29.2108 H   0  0  0  0  0  0  0  0  0  0  0  0
  -13.1073  -28.5669   27.6977 H   0  0  0  0  0  0  0  0  0  0  0  0
  -14.6221  -28.0125   25.2286 H   0  0  0  0  0  0  0  0  0  0  0  0
  -10.7997  -25.5351   14.8196 H   0  0  0  0  0  0  0  0  0  0  0  0
  1  2  1  0
  2  3  1  0
  2  4  1  0
  4  5  2  0
  5  6  1  0
  6  7  2  0
  7  8  1  0
  8  9  1  0
  9 10  2  0
  9 11  1  0
 11 12  2  3
 12 13  1  0
 13 14  2  0
 14 15  1  0
 15 16  2  0
 16 17  1  0
 17 18  1  0
 18 19  2  0
 19 20  1  0
 20 21  2  0
  7 22  1  0
 22 23  2  0
 23  4  1  0
 21 13  1  0
 20 16  1  0
  1 24  1  0
  1 25  1  0
  1 26  1  0
  3 27  1  0
  3 28  1  0
  3 29  1  0
  5 30  1  0
  6 31  1  0
  8 32  1  0
 11 33  1  0
 12 34  1  0
 14 35  1  0
 15 36  1  0
 17 37  1  0
 18 38  1  0
 19 39  1  0
 21 40  1  0
 23 41  1  0
M  END
>  <Energy>  (669) 
221.32184326663204

>  <compound_id>  (669) 
5650

>  <target_id>  (669) 
1

>  <reference_id>  (669) 
48

>  <inspiration_ids>  (669) 
[48, 39]

>  <energy_score>  (669) 
172.33174691525392

>  <distance_score>  (669) 
6.500873498033693

>  <path>  (669) 
/opt/xchem-fragalysis-2/maxwin/BulkDock/SCRATCH/511018/C5650-P48/C5650-P48.minimised.mol

>  <scratch_subdir>  (669) 
/opt/xchem-fragalysis-2/maxwin/BulkDock/SCRATCH/511018/C5650-P48

>  <fragmenstein_runtime>  (669) 
5.762411832809448

>  <fragmenstein_outcome>  (669) 
too moved

>  <fragmenstein_mode>  (669) 
expansion

>  <fragmenstein_error>  (669) 


$$$$
C5650-P39
     RDKit          3D

 41 43  0  0  0  0  0  0  0  0999 V2000
  -11.1640  -34.1129   17.7225 C   0  0  0  0  0  0  0  0  0  0  0  0
  -11.5994  -32.9138   18.4371 N   0  0  0  0  0  0  0  0  0  0  0  0
  -12.8300  -32.2926   17.9138 C   0  0  0  0  0  0  0  0  0  0  0  0
  -11.3174  -32.8197   19.8142 C   0  0  0  0  0  0  0  0  0  0  0  0
   -9.9910  -32.8784   20.2828 C   0  0  0  0  0  0  0  0  0  0  0  0
   -9.6260  -32.3814   21.5557 C   0  0  0  0  0  0  0  0  0  0  0  0
  -10.6134  -31.9814   22.4310 C   0  0  0  0  0  0  0  0  0  0  0  0
  -10.4070  -31.2221   23.6017 N   0  0  0  0  0  0  0  0  0  0  0  0
   -9.2741  -30.4498   24.0410 C   0  0  0  0  0  0  0  0  0  0  0  0
   -8.1833  -30.3196   23.5632 O   0  0  0  0  0  0  0  0  0  0  0  0
   -9.5978  -29.5583   25.3129 C   0  0  0  0  0  0  0  0  0  0  0  0
  -10.1713  -28.2882   25.3706 C   0  0  0  0  0  0  0  0  0  0  0  0
  -10.6633  -27.0762   26.2539 C   0  0  0  0  0  0  0  0  0  0  0  0
  -11.7636  -26.3247   25.7815 C   0  0  0  0  0  0  0  0  0  0  0  0
  -12.3974  -25.2858   26.4930 C   0  0  0  0  0  0  0  0  0  0  0  0
  -11.9096  -25.0098   27.7632 C   0  0  0  0  0  0  0  0  0  0  0  0
  -12.3510  -24.1454   28.7339 N   0  0  0  0  0  0  0  0  0  0  0  0
  -11.5695  -24.2524   29.8496 C   0  0  0  0  0  0  0  0  0  0  0  0
  -10.5617  -25.1466   29.5734 C   0  0  0  0  0  0  0  0  0  0  0  0
  -10.7777  -25.6384   28.2620 C   0  0  0  0  0  0  0  0  0  0  0  0
  -10.1153  -26.5855   27.4525 C   0  0  0  0  0  0  0  0  0  0  0  0
  -11.9242  -32.0919   22.0734 N   0  0  0  0  0  0  0  0  0  0  0  0
  -12.2306  -32.4384   20.7862 C   0  0  0  0  0  0  0  0  0  0  0  0
  -11.7540  -34.9804   18.0376 H   0  0  0  0  0  0  0  0  0  0  0  0
  -11.2911  -33.9871   16.6418 H   0  0  0  0  0  0  0  0  0  0  0  0
  -10.1049  -34.3301   17.8930 H   0  0  0  0  0  0  0  0  0  0  0  0
  -12.7798  -32.2106   16.8227 H   0  0  0  0  0  0  0  0  0  0  0  0
  -12.9600  -31.2794   18.3057 H   0  0  0  0  0  0  0  0  0  0  0  0
  -13.7071  -32.8952   18.1728 H   0  0  0  0  0  0  0  0  0  0  0  0
   -9.1731  -33.1544   19.6190 H   0  0  0  0  0  0  0  0  0  0  0  0
   -8.5758  -32.2762   21.8113 H   0  0  0  0  0  0  0  0  0  0  0  0
  -11.1870  -31.0302   24.2024 H   0  0  0  0  0  0  0  0  0  0  0  0
   -9.2293  -30.1336   26.1430 H   0  0  0  0  0  0  0  0  0  0  0  0
  -10.5803  -28.0561   24.3958 H   0  0  0  0  0  0  0  0  0  0  0  0
  -12.2104  -26.5858   24.8265 H   0  0  0  0  0  0  0  0  0  0  0  0
  -13.2572  -24.7707   26.0800 H   0  0  0  0  0  0  0  0  0  0  0  0
  -13.1653  -23.5575   28.6612 H   0  0  0  0  0  0  0  0  0  0  0  0
  -11.7942  -23.6870   30.7450 H   0  0  0  0  0  0  0  0  0  0  0  0
   -9.7796  -25.4474   30.2600 H   0  0  0  0  0  0  0  0  0  0  0  0
   -9.1552  -26.9169   27.8260 H   0  0  0  0  0  0  0  0  0  0  0  0
  -13.2913  -32.3762   20.5670 H   0  0  0  0  0  0  0  0  0  0  0  0
  1  2  1  0
  2  3  1  0
  2  4  1  0
  4  5  2  0
  5  6  1  0
  6  7  2  0
  7  8  1  0
  8  9  1  0
  9 10  2  0
  9 11  1  0
 11 12  2  3
 12 13  1  0
 13 14  2  0
 14 15  1  0
 15 16  2  0
 16 17  1  0
 17 18  1  0
 18 19  2  0
 19 20  1  0
 20 21  2  0
  7 22  1  0
 22 23  2  0
 23  4  1  0
 21 13  1  0
 20 16  1  0
  1 24  1  0
  1 25  1  0
  1 26  1  0
  3 27  1  0
  3 28  1  0
  3 29  1  0
  5 30  1  0
  6 31  1  0
  8 32  1  0
 11 33  1  0
 12 34  1  0
 14 35  1  0
 15 36  1  0
 17 37  1  0
 18 38  1  0
 19 39  1  0
 21 40  1  0
 23 41  1  0
M  END
>  <Energy>  (670) 
50.938173831674114

>  <compound_id>  (670) 
5650

>  <target_id>  (670) 
1

>  <reference_id>  (670) 
39

>  <inspiration_ids>  (670) 
[48, 39]

>  <energy_score>  (670) 
1.9480774802948986

>  <distance_score>  (670) 
9.68930772266974

>  <path>  (670) 
/opt/xchem-fragalysis-2/maxwin/BulkDock/SCRATCH/511018/C5650-P39/C5650-P39.minimised.mol

>  <scratch_subdir>  (670) 
/opt/xchem-fragalysis-2/maxwin/BulkDock/SCRATCH/511018/C5650-P39

>  <fragmenstein_runtime>  (670) 
18.769933462142944

>  <fragmenstein_outcome>  (670) 
too moved

>  <fragmenstein_mode>  (670) 
expansion

>  <fragmenstein_error>  (670) 


$$$$
C5651-P48
     RDKit          3D

 34 36  0  0  0  0  0  0  0  0999 V2000
  -14.0950  -26.5508   13.5842 N   0  0  0  0  0  0  0  0  0  0  0  0
  -14.0532  -26.3682   14.7293 C   0  0  0  0  0  0  0  0  0  0  0  0
  -13.9575  -26.1119   16.1335 C   0  0  0  0  0  0  0  0  0  0  0  0
  -13.3234  -26.9737   17.0094 C   0  0  0  0  0  0  0  0  0  0  0  0
  -13.0989  -26.5821   18.3516 C   0  0  0  0  0  0  0  0  0  0  0  0
  -13.4070  -25.2867   18.8078 C   0  0  0  0  0  0  0  0  0  0  0  0
  -12.8866  -24.7142   20.1636 N   0  0  0  0  0  0  0  0  0  0  0  0
  -12.5073  -23.1320   20.6343 C   0  0  0  0  0  0  0  0  0  0  0  0
  -12.5048  -22.1897   19.9214 O   0  0  0  0  0  0  0  0  0  0  0  0
  -12.2025  -22.6056   22.3188 C   0  0  0  0  0  0  0  0  0  0  0  0
  -13.0662  -22.4077   23.4166 C   0  0  0  0  0  0  0  0  0  0  0  0
  -13.2136  -23.1848   24.7724 C   0  0  0  0  0  0  0  0  0  0  0  0
  -12.4311  -22.7453   25.8481 C   0  0  0  0  0  0  0  0  0  0  0  0
  -12.0064  -23.5476   26.9193 C   0  0  0  0  0  0  0  0  0  0  0  0
  -12.3979  -24.8759   26.8892 C   0  0  0  0  0  0  0  0  0  0  0  0
  -12.0797  -25.9135   27.7294 N   0  0  0  0  0  0  0  0  0  0  0  0
  -12.7587  -27.0405   27.3468 C   0  0  0  0  0  0  0  0  0  0  0  0
  -13.5518  -26.7143   26.2699 C   0  0  0  0  0  0  0  0  0  0  0  0
  -13.3205  -25.3439   25.9562 C   0  0  0  0  0  0  0  0  0  0  0  0
  -13.8323  -24.4415   24.9683 C   0  0  0  0  0  0  0  0  0  0  0  0
  -14.1356  -24.5195   17.9567 N   0  0  0  0  0  0  0  0  0  0  0  0
  -14.4236  -24.9408   16.6831 C   0  0  0  0  0  0  0  0  0  0  0  0
  -12.9521  -27.9383   16.6683 H   0  0  0  0  0  0  0  0  0  0  0  0
  -12.5682  -27.3068   18.9466 H   0  0  0  0  0  0  0  0  0  0  0  0
  -12.7305  -25.3283   20.9284 H   0  0  0  0  0  0  0  0  0  0  0  0
  -11.6661  -21.6768   22.0529 H   0  0  0  0  0  0  0  0  0  0  0  0
  -13.1048  -21.3499   23.7176 H   0  0  0  0  0  0  0  0  0  0  0  0
  -12.1295  -21.7027   25.8600 H   0  0  0  0  0  0  0  0  0  0  0  0
  -11.3797  -23.1402   27.7058 H   0  0  0  0  0  0  0  0  0  0  0  0
  -11.4536  -25.8372   28.5219 H   0  0  0  0  0  0  0  0  0  0  0  0
  -12.6434  -27.9647   27.8995 H   0  0  0  0  0  0  0  0  0  0  0  0
  -14.2430  -27.3803   25.7703 H   0  0  0  0  0  0  0  0  0  0  0  0
  -14.5373  -24.8586   24.2745 H   0  0  0  0  0  0  0  0  0  0  0  0
  -14.9901  -24.2226   16.0946 H   0  0  0  0  0  0  0  0  0  0  0  0
  1  2  3  0
  2  3  1  0
  3  4  2  0
  4  5  1  0
  5  6  2  0
  6  7  1  0
  7  8  1  0
  8  9  2  0
  8 10  1  0
 10 11  2  3
 11 12  1  0
 12 13  2  0
 13 14  1  0
 14 15  2  0
 15 16  1  0
 16 17  1  0
 17 18  2  0
 18 19  1  0
 19 20  2  0
  6 21  1  0
 21 22  2  0
 22  3  1  0
 20 12  1  0
 19 15  1  0
  4 23  1  0
  5 24  1  0
  7 25  1  0
 10 26  1  0
 11 27  1  0
 13 28  1  0
 14 29  1  0
 16 30  1  0
 17 31  1  0
 18 32  1  0
 20 33  1  0
 22 34  1  0
M  END
>  <Energy>  (671) 
148.07786973766008

>  <compound_id>  (671) 
5651

>  <target_id>  (671) 
1

>  <reference_id>  (671) 
48

>  <inspiration_ids>  (671) 
[48, 39]

>  <energy_score>  (671) 
112.50570643825003

>  <distance_score>  (671) 
7.2195849285180556

>  <path>  (671) 
/opt/xchem-fragalysis-2/maxwin/BulkDock/SCRATCH/511018/C5651-P48/C5651-P48.minimised.mol

>  <scratch_subdir>  (671) 
/opt/xchem-fragalysis-2/maxwin/BulkDock/SCRATCH/511018/C5651-P48

>  <fragmenstein_runtime>  (671) 
4.1945555210113525

>  <fragmenstein_outcome>  (671) 
too moved

>  <fragmenstein_mode>  (671) 
expansion

>  <fragmenstein_error>  (671) 


$$$$
C5651-P39
     RDKit          3D

 34 36  0  0  0  0  0  0  0  0999 V2000
  -13.2117  -26.2403   12.5800 N   0  0  0  0  0  0  0  0  0  0  0  0
  -13.5079  -26.2680   13.7013 C   0  0  0  0  0  0  0  0  0  0  0  0
  -13.8811  -26.2757   15.0823 C   0  0  0  0  0  0  0  0  0  0  0  0
  -15.2039  -26.2861   15.5059 C   0  0  0  0  0  0  0  0  0  0  0  0
  -15.4989  -26.2297   16.8851 C   0  0  0  0  0  0  0  0  0  0  0  0
  -14.4671  -26.0834   17.8444 C   0  0  0  0  0  0  0  0  0  0  0  0
  -14.7700  -26.1852   19.5007 N   0  0  0  0  0  0  0  0  0  0  0  0
  -14.5050  -25.7408   20.4763 C   0  0  0  0  0  0  0  0  0  0  0  0
  -13.3482  -24.7058   20.0683 O   0  0  0  0  0  0  0  0  0  0  0  0
  -15.0198  -26.0839   22.2616 C   0  0  0  0  0  0  0  0  0  0  0  0
  -14.6752  -25.4203   23.4330 C   0  0  0  0  0  0  0  0  0  0  0  0
  -14.4379  -25.8570   24.8279 C   0  0  0  0  0  0  0  0  0  0  0  0
  -15.3874  -25.7002   25.8048 C   0  0  0  0  0  0  0  0  0  0  0  0
  -14.9835  -25.6299   27.1406 C   0  0  0  0  0  0  0  0  0  0  0  0
  -13.6154  -25.5905   27.4761 C   0  0  0  0  0  0  0  0  0  0  0  0
  -12.9322  -25.2799   28.6369 N   0  0  0  0  0  0  0  0  0  0  0  0
  -11.5986  -25.5538   28.4913 C   0  0  0  0  0  0  0  0  0  0  0  0
  -11.4015  -25.9548   27.1942 C   0  0  0  0  0  0  0  0  0  0  0  0
  -12.6548  -25.9003   26.5363 C   0  0  0  0  0  0  0  0  0  0  0  0
  -13.0962  -26.0987   25.2218 C   0  0  0  0  0  0  0  0  0  0  0  0
  -13.2033  -26.1760   17.4101 N   0  0  0  0  0  0  0  0  0  0  0  0
  -12.9254  -26.2554   16.0736 C   0  0  0  0  0  0  0  0  0  0  0  0
  -16.0171  -26.3322   14.7840 H   0  0  0  0  0  0  0  0  0  0  0  0
  -16.5418  -26.2588   17.1895 H   0  0  0  0  0  0  0  0  0  0  0  0
  -15.2402  -26.8348   18.8909 H   0  0  0  0  0  0  0  0  0  0  0  0
  -15.5744  -26.9719   22.4828 H   0  0  0  0  0  0  0  0  0  0  0  0
  -14.2585  -24.4134   23.3314 H   0  0  0  0  0  0  0  0  0  0  0  0
  -16.4305  -25.5295   25.5518 H   0  0  0  0  0  0  0  0  0  0  0  0
  -15.7562  -25.4742   27.8749 H   0  0  0  0  0  0  0  0  0  0  0  0
  -13.3569  -24.9880   29.5106 H   0  0  0  0  0  0  0  0  0  0  0  0
  -10.9129  -25.4403   29.3214 H   0  0  0  0  0  0  0  0  0  0  0  0
  -10.4550  -26.2398   26.7653 H   0  0  0  0  0  0  0  0  0  0  0  0
  -12.3261  -26.3745   24.5181 H   0  0  0  0  0  0  0  0  0  0  0  0
  -11.8606  -26.2770   15.8441 H   0  0  0  0  0  0  0  0  0  0  0  0
  1  2  3  0
  2  3  1  0
  3  4  2  0
  4  5  1  0
  5  6  2  0
  6  7  1  0
  7  8  1  0
  8  9  2  0
  8 10  1  0
 10 11  2  3
 11 12  1  0
 12 13  2  0
 13 14  1  0
 14 15  2  0
 15 16  1  0
 16 17  1  0
 17 18  2  0
 18 19  1  0
 19 20  2  0
  6 21  1  0
 21 22  2  0
 22  3  1  0
 20 12  1  0
 19 15  1  0
  4 23  1  0
  5 24  1  0
  7 25  1  0
 10 26  1  0
 11 27  1  0
 13 28  1  0
 14 29  1  0
 16 30  1  0
 17 31  1  0
 18 32  1  0
 20 33  1  0
 22 34  1  0
M  END
>  <Energy>  (672) 
303.96247443178157

>  <compound_id>  (672) 
5651

>  <target_id>  (672) 
1

>  <reference_id>  (672) 
39

>  <inspiration_ids>  (672) 
[48, 39]

>  <energy_score>  (672) 
268.3903111323722

>  <distance_score>  (672) 
7.024853949148929

>  <path>  (672) 
/opt/xchem-fragalysis-2/maxwin/BulkDock/SCRATCH/511018/C5651-P39/C5651-P39.minimised.mol

>  <scratch_subdir>  (672) 
/opt/xchem-fragalysis-2/maxwin/BulkDock/SCRATCH/511018/C5651-P39

>  <fragmenstein_runtime>  (672) 
9.458792686462402

>  <fragmenstein_outcome>  (672) 
too moved

>  <fragmenstein_mode>  (672) 
expansion

>  <fragmenstein_error>  (672) 


$$$$
C5652-P48
     RDKit          3D

 36 39  0  0  0  0  0  0  0  0999 V2000
  -10.3085  -26.6050   21.7127 O   0  0  0  0  0  0  0  0  0  0  0  0
  -10.3953  -27.4810   22.5520 C   0  0  0  0  0  0  0  0  0  0  0  0
  -10.7311  -27.3682   24.4480 N   0  0  0  0  0  0  0  0  0  0  0  0
  -11.0785  -26.1882   25.3530 C   0  0  0  0  0  0  0  0  0  0  0  0
  -10.4929  -25.0691   25.9276 C   0  0  0  0  0  0  0  0  0  0  0  0
  -11.2827  -24.1563   26.6591 C   0  0  0  0  0  0  0  0  0  0  0  0
  -12.5943  -24.2544   26.2382 C   0  0  0  0  0  0  0  0  0  0  0  0
  -13.4563  -23.3082   25.7577 N   0  0  0  0  0  0  0  0  0  0  0  0
  -14.4824  -23.9193   25.0720 C   0  0  0  0  0  0  0  0  0  0  0  0
  -14.3625  -25.2831   25.2276 C   0  0  0  0  0  0  0  0  0  0  0  0
  -13.1352  -25.4904   25.9098 C   0  0  0  0  0  0  0  0  0  0  0  0
  -12.2831  -26.5745   26.0051 C   0  0  0  0  0  0  0  0  0  0  0  0
  -10.1975  -29.3869   21.6824 C   0  0  0  0  0  0  0  0  0  0  0  0
   -8.7682  -30.2610   21.8724 C   0  0  0  0  0  0  0  0  0  0  0  0
   -8.9519  -31.4878   21.2622 C   0  0  0  0  0  0  0  0  0  0  0  0
  -10.2333  -31.4690   20.7559 N   0  0  0  0  0  0  0  0  0  0  0  0
  -10.7770  -32.1536   19.6036 C   0  0  0  0  0  0  0  0  0  0  0  0
  -12.0872  -31.8571   19.1809 C   0  0  0  0  0  0  0  0  0  0  0  0
  -12.4639  -32.1850   17.8830 C   0  0  0  0  0  0  0  0  0  0  0  0
  -11.6483  -32.8078   17.0044 N   0  0  0  0  0  0  0  0  0  0  0  0
  -10.4396  -33.1988   17.4674 C   0  0  0  0  0  0  0  0  0  0  0  0
   -9.9574  -32.8966   18.7414 C   0  0  0  0  0  0  0  0  0  0  0  0
  -10.9942  -30.5752   21.4451 N   0  0  0  0  0  0  0  0  0  0  0  0
  -10.6648  -28.2324   24.8806 H   0  0  0  0  0  0  0  0  0  0  0  0
   -9.4638  -24.7939   25.7726 H   0  0  0  0  0  0  0  0  0  0  0  0
  -10.8869  -23.2483   27.0812 H   0  0  0  0  0  0  0  0  0  0  0  0
  -13.3341  -22.3004   25.8054 H   0  0  0  0  0  0  0  0  0  0  0  0
  -15.2394  -23.3063   24.5993 H   0  0  0  0  0  0  0  0  0  0  0  0
  -15.0167  -26.0221   24.7841 H   0  0  0  0  0  0  0  0  0  0  0  0
  -12.7109  -27.5614   25.8574 H   0  0  0  0  0  0  0  0  0  0  0  0
   -7.8713  -29.8206   22.2905 H   0  0  0  0  0  0  0  0  0  0  0  0
   -8.2601  -32.2886   21.0484 H   0  0  0  0  0  0  0  0  0  0  0  0
  -12.7711  -31.2906   19.8015 H   0  0  0  0  0  0  0  0  0  0  0  0
  -13.4466  -31.9216   17.5013 H   0  0  0  0  0  0  0  0  0  0  0  0
   -9.8257  -33.7453   16.7548 H   0  0  0  0  0  0  0  0  0  0  0  0
   -8.9381  -33.1673   18.9942 H   0  0  0  0  0  0  0  0  0  0  0  0
  1  2  2  0
  2  3  1  0
  3  4  1  0
  4  5  2  0
  5  6  1  0
  6  7  2  0
  7  8  1  0
  8  9  1  0
  9 10  2  0
 10 11  1  0
 11 12  2  0
  2 13  1  0
 13 14  1  0
 14 15  2  0
 15 16  1  0
 16 17  1  0
 17 18  2  0
 18 19  1  0
 19 20  2  0
 20 21  1  0
 21 22  2  0
 16 23  1  0
 12  4  1  0
 23 13  2  0
 11  7  1  0
 22 17  1  0
  3 24  1  0
  5 25  1  0
  6 26  1  0
  8 27  1  0
  9 28  1  0
 10 29  1  0
 12 30  1  0
 14 31  1  0
 15 32  1  0
 18 33  1  0
 19 34  1  0
 21 35  1  0
 22 36  1  0
M  END
>  <Energy>  (673) 
411.65659260424093

>  <compound_id>  (673) 
5652

>  <target_id>  (673) 
1

>  <reference_id>  (673) 
48

>  <inspiration_ids>  (673) 
[48, 39]

>  <energy_score>  (673) 
309.50899042043454

>  <distance_score>  (673) 
8.7463437217772

>  <path>  (673) 
/opt/xchem-fragalysis-2/maxwin/BulkDock/SCRATCH/511018/C5652-P48/C5652-P48.minimised.mol

>  <scratch_subdir>  (673) 
/opt/xchem-fragalysis-2/maxwin/BulkDock/SCRATCH/511018/C5652-P48

>  <fragmenstein_runtime>  (673) 
5.215291738510132

>  <fragmenstein_outcome>  (673) 
too moved

>  <fragmenstein_mode>  (673) 
expansion

>  <fragmenstein_error>  (673) 


$$$$
C5652-P39
     RDKit          3D

 36 39  0  0  0  0  0  0  0  0999 V2000
  -10.2199  -30.6849   26.5809 O   0  0  0  0  0  0  0  0  0  0  0  0
  -10.0627  -30.0081   25.5975 C   0  0  0  0  0  0  0  0  0  0  0  0
  -10.3121  -28.5077   25.3688 N   0  0  0  0  0  0  0  0  0  0  0  0
  -10.9346  -27.4274   26.2907 C   0  0  0  0  0  0  0  0  0  0  0  0
  -11.0765  -26.1554   25.6983 C   0  0  0  0  0  0  0  0  0  0  0  0
  -12.0274  -25.1820   26.0336 C   0  0  0  0  0  0  0  0  0  0  0  0
  -13.1064  -25.7698   26.6470 C   0  0  0  0  0  0  0  0  0  0  0  0
  -14.4421  -25.4892   26.5046 N   0  0  0  0  0  0  0  0  0  0  0  0
  -15.1902  -26.5164   27.0033 C   0  0  0  0  0  0  0  0  0  0  0  0
  -14.3220  -27.4183   27.5759 C   0  0  0  0  0  0  0  0  0  0  0  0
  -12.9876  -26.9458   27.3727 C   0  0  0  0  0  0  0  0  0  0  0  0
  -11.7319  -27.6207   27.4410 C   0  0  0  0  0  0  0  0  0  0  0  0
   -9.4812  -30.6853   24.3878 C   0  0  0  0  0  0  0  0  0  0  0  0
   -8.1154  -30.7624   24.0240 C   0  0  0  0  0  0  0  0  0  0  0  0
   -8.0859  -31.4760   22.8453 C   0  0  0  0  0  0  0  0  0  0  0  0
   -9.3918  -31.7802   22.5215 N   0  0  0  0  0  0  0  0  0  0  0  0
   -9.8873  -32.3633   21.3056 C   0  0  0  0  0  0  0  0  0  0  0  0
  -11.2452  -32.2560   20.9788 C   0  0  0  0  0  0  0  0  0  0  0  0
  -11.6782  -32.7722   19.7673 C   0  0  0  0  0  0  0  0  0  0  0  0
  -10.8485  -33.3654   18.8696 N   0  0  0  0  0  0  0  0  0  0  0  0
   -9.5630  -33.5652   19.2554 C   0  0  0  0  0  0  0  0  0  0  0  0
   -9.0351  -33.0466   20.4279 C   0  0  0  0  0  0  0  0  0  0  0  0
  -10.2261  -31.4214   23.5357 N   0  0  0  0  0  0  0  0  0  0  0  0
  -10.1586  -28.2921   24.4173 H   0  0  0  0  0  0  0  0  0  0  0  0
  -10.5215  -25.9125   24.8149 H   0  0  0  0  0  0  0  0  0  0  0  0
  -12.1012  -24.2478   25.4878 H   0  0  0  0  0  0  0  0  0  0  0  0
  -14.8042  -24.7536   25.9144 H   0  0  0  0  0  0  0  0  0  0  0  0
  -16.2666  -26.5294   26.8917 H   0  0  0  0  0  0  0  0  0  0  0  0
  -14.6093  -28.3694   28.0073 H   0  0  0  0  0  0  0  0  0  0  0  0
  -11.7678  -28.5839   27.9354 H   0  0  0  0  0  0  0  0  0  0  0  0
   -7.2680  -30.3444   24.5497 H   0  0  0  0  0  0  0  0  0  0  0  0
   -7.2616  -31.7317   22.1953 H   0  0  0  0  0  0  0  0  0  0  0  0
  -11.9502  -31.7719   21.6455 H   0  0  0  0  0  0  0  0  0  0  0  0
  -12.7188  -32.6999   19.4635 H   0  0  0  0  0  0  0  0  0  0  0  0
   -8.9398  -34.1144   18.5538 H   0  0  0  0  0  0  0  0  0  0  0  0
   -7.9812  -33.1942   20.6372 H   0  0  0  0  0  0  0  0  0  0  0  0
  1  2  2  0
  2  3  1  0
  3  4  1  0
  4  5  2  0
  5  6  1  0
  6  7  2  0
  7  8  1  0
  8  9  1  0
  9 10  2  0
 10 11  1  0
 11 12  2  0
  2 13  1  0
 13 14  1  0
 14 15  2  0
 15 16  1  0
 16 17  1  0
 17 18  2  0
 18 19  1  0
 19 20  2  0
 20 21  1  0
 21 22  2  0
 16 23  1  0
 12  4  1  0
 23 13  2  0
 11  7  1  0
 22 17  1  0
  3 24  1  0
  5 25  1  0
  6 26  1  0
  8 27  1  0
  9 28  1  0
 10 29  1  0
 12 30  1  0
 14 31  1  0
 15 32  1  0
 18 33  1  0
 19 34  1  0
 21 35  1  0
 22 36  1  0
M  END
>  <Energy>  (674) 
128.42348188308105

>  <compound_id>  (674) 
5652

>  <target_id>  (674) 
1

>  <reference_id>  (674) 
39

>  <inspiration_ids>  (674) 
[48, 39]

>  <energy_score>  (674) 
26.275879699274356

>  <distance_score>  (674) 
9.578595931700539

>  <path>  (674) 
/opt/xchem-fragalysis-2/maxwin/BulkDock/SCRATCH/511018/C5652-P39/C5652-P39.minimised.mol

>  <scratch_subdir>  (674) 
/opt/xchem-fragalysis-2/maxwin/BulkDock/SCRATCH/511018/C5652-P39

>  <fragmenstein_runtime>  (674) 
15.493592023849487

>  <fragmenstein_outcome>  (674) 
too moved

>  <fragmenstein_mode>  (674) 
expansion

>  <fragmenstein_error>  (674) 


$$$$
C5653-P48
     RDKit          3D

 37 40  0  0  0  0  0  0  0  0999 V2000
  -15.9643  -28.6475   15.1639 C   0  0  0  0  0  0  0  0  0  0  0  0
  -15.7851  -28.3258   16.5110 C   0  0  0  0  0  0  0  0  0  0  0  0
  -14.9572  -27.2557   16.8151 C   0  0  0  0  0  0  0  0  0  0  0  0
  -14.6852  -26.8256   18.1602 N   0  0  0  0  0  0  0  0  0  0  0  0
  -15.0970  -27.2689   19.4392 C   0  0  0  0  0  0  0  0  0  0  0  0
  -14.2872  -26.6239   20.4251 C   0  0  0  0  0  0  0  0  0  0  0  0
  -14.2534  -26.7726   22.2916 N   0  0  0  0  0  0  0  0  0  0  0  0
  -15.5197  -26.5859   23.3647 C   0  0  0  0  0  0  0  0  0  0  0  0
  -14.9171  -26.5405   24.8055 C   0  0  0  0  0  0  0  0  0  0  0  0
  -15.1444  -27.5551   25.7453 C   0  0  0  0  0  0  0  0  0  0  0  0
  -14.3644  -27.6955   26.9093 C   0  0  0  0  0  0  0  0  0  0  0  0
  -13.3270  -26.7836   27.1136 C   0  0  0  0  0  0  0  0  0  0  0  0
  -12.3941  -26.6929   28.1221 N   0  0  0  0  0  0  0  0  0  0  0  0
  -11.6475  -25.5573   27.9650 C   0  0  0  0  0  0  0  0  0  0  0  0
  -12.0913  -24.9089   26.8374 C   0  0  0  0  0  0  0  0  0  0  0  0
  -13.1400  -25.6878   26.2747 C   0  0  0  0  0  0  0  0  0  0  0  0
  -14.0177  -25.5264   25.1721 C   0  0  0  0  0  0  0  0  0  0  0  0
  -13.5984  -25.6942   19.5685 C   0  0  0  0  0  0  0  0  0  0  0  0
  -13.8849  -25.7584   18.2838 N   0  0  0  0  0  0  0  0  0  0  0  0
  -14.3399  -26.5701   15.7431 C   0  0  0  0  0  0  0  0  0  0  0  0
  -14.5807  -26.9697   14.4385 C   0  0  0  0  0  0  0  0  0  0  0  0
  -15.3863  -27.9990   14.1258 N   0  0  0  0  0  0  0  0  0  0  0  0
  -16.6093  -29.4750   14.8773 H   0  0  0  0  0  0  0  0  0  0  0  0
  -16.2924  -28.9060   17.2720 H   0  0  0  0  0  0  0  0  0  0  0  0
  -15.8519  -28.0358   19.5211 H   0  0  0  0  0  0  0  0  0  0  0  0
  -13.6068  -26.0680   22.6533 H   0  0  0  0  0  0  0  0  0  0  0  0
  -16.1440  -25.7041   23.2398 H   0  0  0  0  0  0  0  0  0  0  0  0
  -16.2672  -27.3730   23.1981 H   0  0  0  0  0  0  0  0  0  0  0  0
  -15.9048  -28.3122   25.5495 H   0  0  0  0  0  0  0  0  0  0  0  0
  -14.5428  -28.5187   27.5963 H   0  0  0  0  0  0  0  0  0  0  0  0
  -12.3097  -27.3410   28.8951 H   0  0  0  0  0  0  0  0  0  0  0  0
  -10.8879  -25.2853   28.6864 H   0  0  0  0  0  0  0  0  0  0  0  0
  -11.7210  -23.9549   26.4817 H   0  0  0  0  0  0  0  0  0  0  0  0
  -13.9515  -24.6232   24.5723 H   0  0  0  0  0  0  0  0  0  0  0  0
  -12.9169  -24.9185   19.8793 H   0  0  0  0  0  0  0  0  0  0  0  0
  -13.6713  -25.7308   15.9088 H   0  0  0  0  0  0  0  0  0  0  0  0
  -14.1187  -26.4599   13.5984 H   0  0  0  0  0  0  0  0  0  0  0  0
  1  2  2  0
  2  3  1  0
  3  4  1  0
  4  5  1  0
  5  6  2  0
  6  7  1  0
  7  8  1  0
  8  9  1  0
  9 10  2  0
 10 11  1  0
 11 12  2  0
 12 13  1  0
 13 14  1  0
 14 15  2  0
 15 16  1  0
 16 17  2  0
  6 18  1  0
 18 19  2  0
  3 20  2  0
 20 21  1  0
 21 22  2  0
 22  1  1  0
 19  4  1  0
 17  9  1  0
 16 12  1  0
  1 23  1  0
  2 24  1  0
  5 25  1  0
  7 26  1  0
  8 27  1  0
  8 28  1  0
 10 29  1  0
 11 30  1  0
 13 31  1  0
 14 32  1  0
 15 33  1  0
 17 34  1  0
 18 35  1  0
 20 36  1  0
 21 37  1  0
M  END
>  <Energy>  (675) 
158.07093430960006

>  <compound_id>  (675) 
5653

>  <target_id>  (675) 
1

>  <reference_id>  (675) 
48

>  <inspiration_ids>  (675) 
[48, 39]

>  <energy_score>  (675) 
100.04590141632036

>  <distance_score>  (675) 
7.361738136118702

>  <path>  (675) 
/opt/xchem-fragalysis-2/maxwin/BulkDock/SCRATCH/511018/C5653-P48/C5653-P48.minimised.mol

>  <scratch_subdir>  (675) 
/opt/xchem-fragalysis-2/maxwin/BulkDock/SCRATCH/511018/C5653-P48

>  <fragmenstein_runtime>  (675) 
5.157952308654785

>  <fragmenstein_outcome>  (675) 
too moved

>  <fragmenstein_mode>  (675) 
expansion

>  <fragmenstein_error>  (675) 


$$$$
C5653-P39
     RDKit          3D

 37 40  0  0  0  0  0  0  0  0999 V2000
  -11.4433  -32.4610   20.0115 C   0  0  0  0  0  0  0  0  0  0  0  0
  -11.0364  -31.8907   21.2057 C   0  0  0  0  0  0  0  0  0  0  0  0
   -9.7354  -32.1252   21.6673 C   0  0  0  0  0  0  0  0  0  0  0  0
   -9.3375  -31.6650   22.9644 N   0  0  0  0  0  0  0  0  0  0  0  0
   -9.4022  -30.3690   23.4607 C   0  0  0  0  0  0  0  0  0  0  0  0
   -9.7029  -30.4547   24.8014 C   0  0  0  0  0  0  0  0  0  0  0  0
  -10.2649  -29.5467   25.6882 N   0  0  0  0  0  0  0  0  0  0  0  0
  -10.2498  -28.0115   25.6182 C   0  0  0  0  0  0  0  0  0  0  0  0
  -11.0611  -26.9530   26.4669 C   0  0  0  0  0  0  0  0  0  0  0  0
  -11.2835  -25.6992   25.8553 C   0  0  0  0  0  0  0  0  0  0  0  0
  -11.7033  -24.5382   26.5198 C   0  0  0  0  0  0  0  0  0  0  0  0
  -11.8318  -24.6382   27.8940 C   0  0  0  0  0  0  0  0  0  0  0  0
  -12.0767  -23.6672   28.8330 N   0  0  0  0  0  0  0  0  0  0  0  0
  -12.1027  -24.2244   30.0791 C   0  0  0  0  0  0  0  0  0  0  0  0
  -11.8660  -25.5738   29.9429 C   0  0  0  0  0  0  0  0  0  0  0  0
  -11.7008  -25.8502   28.5612 C   0  0  0  0  0  0  0  0  0  0  0  0
  -11.4169  -27.0216   27.8178 C   0  0  0  0  0  0  0  0  0  0  0  0
   -9.4376  -31.8245   25.0734 C   0  0  0  0  0  0  0  0  0  0  0  0
   -9.1371  -32.5437   23.9793 N   0  0  0  0  0  0  0  0  0  0  0  0
   -8.8979  -32.9462   20.9206 C   0  0  0  0  0  0  0  0  0  0  0  0
   -9.3684  -33.4210   19.7018 C   0  0  0  0  0  0  0  0  0  0  0  0
  -10.6108  -33.1637   19.2059 N   0  0  0  0  0  0  0  0  0  0  0  0
  -12.4582  -32.3384   19.6444 H   0  0  0  0  0  0  0  0  0  0  0  0
  -11.7615  -31.3699   21.8086 H   0  0  0  0  0  0  0  0  0  0  0  0
   -9.4306  -29.5672   22.7450 H   0  0  0  0  0  0  0  0  0  0  0  0
  -10.5359  -29.9657   26.5791 H   0  0  0  0  0  0  0  0  0  0  0  0
   -9.2205  -27.7638   25.8278 H   0  0  0  0  0  0  0  0  0  0  0  0
  -10.5613  -27.7966   24.6070 H   0  0  0  0  0  0  0  0  0  0  0  0
  -11.0454  -25.5799   24.8091 H   0  0  0  0  0  0  0  0  0  0  0  0
  -11.8232  -23.5963   25.9936 H   0  0  0  0  0  0  0  0  0  0  0  0
  -12.1741  -22.6833   28.6276 H   0  0  0  0  0  0  0  0  0  0  0  0
  -12.2856  -23.6248   30.9617 H   0  0  0  0  0  0  0  0  0  0  0  0
  -11.8091  -26.2808   30.7599 H   0  0  0  0  0  0  0  0  0  0  0  0
  -11.4208  -27.9461   28.3619 H   0  0  0  0  0  0  0  0  0  0  0  0
   -9.4853  -32.3349   26.0265 H   0  0  0  0  0  0  0  0  0  0  0  0
   -7.8976  -33.1937   21.2606 H   0  0  0  0  0  0  0  0  0  0  0  0
   -8.7329  -34.0362   19.0689 H   0  0  0  0  0  0  0  0  0  0  0  0
  1  2  2  0
  2  3  1  0
  3  4  1  0
  4  5  1  0
  5  6  2  0
  6  7  1  0
  7  8  1  0
  8  9  1  0
  9 10  2  0
 10 11  1  0
 11 12  2  0
 12 13  1  0
 13 14  1  0
 14 15  2  0
 15 16  1  0
 16 17  2  0
  6 18  1  0
 18 19  2  0
  3 20  2  0
 20 21  1  0
 21 22  2  0
 22  1  1  0
 19  4  1  0
 17  9  1  0
 16 12  1  0
  1 23  1  0
  2 24  1  0
  5 25  1  0
  7 26  1  0
  8 27  1  0
  8 28  1  0
 10 29  1  0
 11 30  1  0
 13 31  1  0
 14 32  1  0
 15 33  1  0
 17 34  1  0
 18 35  1  0
 20 36  1  0
 21 37  1  0
M  END
>  <Energy>  (676) 
87.607097715559888

>  <compound_id>  (676) 
5653

>  <target_id>  (676) 
1

>  <reference_id>  (676) 
39

>  <inspiration_ids>  (676) 
[48, 39]

>  <energy_score>  (676) 
29.58206482228161

>  <distance_score>  (676) 
9.520632435503995

>  <path>  (676) 
/opt/xchem-fragalysis-2/maxwin/BulkDock/SCRATCH/511018/C5653-P39/C5653-P39.minimised.mol

>  <scratch_subdir>  (676) 
/opt/xchem-fragalysis-2/maxwin/BulkDock/SCRATCH/511018/C5653-P39

>  <fragmenstein_runtime>  (676) 
6.597272157669067

>  <fragmenstein_outcome>  (676) 
too moved

>  <fragmenstein_mode>  (676) 
expansion

>  <fragmenstein_error>  (676) 


$$$$
C5655-P48
     RDKit          3D

 36 39  0  0  0  0  0  0  0  0999 V2000
  -11.6616  -27.9593   24.8581 O   0  0  0  0  0  0  0  0  0  0  0  0
  -10.9149  -27.1198   24.5366 C   0  0  0  0  0  0  0  0  0  0  0  0
  -10.4094  -25.9362   25.5088 N   0  0  0  0  0  0  0  0  0  0  0  0
  -10.7896  -25.5871   26.8421 C   0  0  0  0  0  0  0  0  0  0  0  0
  -10.8852  -24.2410   27.0948 C   0  0  0  0  0  0  0  0  0  0  0  0
  -12.0525  -23.6020   26.6837 C   0  0  0  0  0  0  0  0  0  0  0  0
  -13.0173  -24.4662   26.1575 C   0  0  0  0  0  0  0  0  0  0  0  0
  -14.0886  -24.2469   25.3181 N   0  0  0  0  0  0  0  0  0  0  0  0
  -14.7452  -25.4394   25.0962 C   0  0  0  0  0  0  0  0  0  0  0  0
  -14.1267  -26.4263   25.8311 C   0  0  0  0  0  0  0  0  0  0  0  0
  -13.0006  -25.8359   26.4613 C   0  0  0  0  0  0  0  0  0  0  0  0
  -11.9100  -26.3314   27.1974 C   0  0  0  0  0  0  0  0  0  0  0  0
  -10.3971  -27.1319   22.5694 C   0  0  0  0  0  0  0  0  0  0  0  0
  -10.5165  -28.1693   21.2115 C   0  0  0  0  0  0  0  0  0  0  0  0
  -11.7187  -28.1601   19.8958 N   0  0  0  0  0  0  0  0  0  0  0  0
  -11.1829  -26.7743   19.3313 N   0  0  0  0  0  0  0  0  0  0  0  0
  -11.9044  -26.4806   18.0804 C   0  0  0  0  0  0  0  0  0  0  0  0
  -13.2887  -26.2941   18.0673 C   0  0  0  0  0  0  0  0  0  0  0  0
  -13.9282  -26.1712   16.8351 C   0  0  0  0  0  0  0  0  0  0  0  0
  -13.3078  -26.2692   15.6368 N   0  0  0  0  0  0  0  0  0  0  0  0
  -11.9962  -26.5753   15.6650 C   0  0  0  0  0  0  0  0  0  0  0  0
  -11.2723  -26.7265   16.8425 C   0  0  0  0  0  0  0  0  0  0  0  0
  -10.3338  -26.2029   21.0376 C   0  0  0  0  0  0  0  0  0  0  0  0
   -9.8344  -25.2888   24.9680 H   0  0  0  0  0  0  0  0  0  0  0  0
  -10.0259  -23.7010   27.4620 H   0  0  0  0  0  0  0  0  0  0  0  0
  -12.1496  -22.5237   26.6517 H   0  0  0  0  0  0  0  0  0  0  0  0
  -14.3875  -23.3283   25.0073 H   0  0  0  0  0  0  0  0  0  0  0  0
  -15.6440  -25.4697   24.4957 H   0  0  0  0  0  0  0  0  0  0  0  0
  -14.4231  -27.4664   25.8711 H   0  0  0  0  0  0  0  0  0  0  0  0
  -11.8420  -27.4063   27.3484 H   0  0  0  0  0  0  0  0  0  0  0  0
  -10.3517  -29.2943   21.5075 H   0  0  0  0  0  0  0  0  0  0  0  0
  -13.8582  -26.2476   18.9877 H   0  0  0  0  0  0  0  0  0  0  0  0
  -15.0000  -25.9959   16.7823 H   0  0  0  0  0  0  0  0  0  0  0  0
  -11.5242  -26.7107   14.6957 H   0  0  0  0  0  0  0  0  0  0  0  0
  -10.2271  -27.0111   16.7716 H   0  0  0  0  0  0  0  0  0  0  0  0
  -10.7495  -25.1647   20.9530 H   0  0  0  0  0  0  0  0  0  0  0  0
  1  2  2  0
  2  3  1  0
  3  4  1  0
  4  5  2  0
  5  6  1  0
  6  7  2  0
  7  8  1  0
  8  9  1  0
  9 10  2  0
 10 11  1  0
 11 12  2  0
  2 13  1  0
 13 14  1  0
 14 15  2  0
 15 16  1  0
 16 17  1  0
 17 18  2  0
 18 19  1  0
 19 20  2  0
 20 21  1  0
 21 22  2  0
 16 23  1  0
 12  4  1  0
 23 13  2  0
 11  7  1  0
 22 17  1  0
  3 24  1  0
  5 25  1  0
  6 26  1  0
  8 27  1  0
  9 28  1  0
 10 29  1  0
 12 30  1  0
 14 31  1  0
 18 32  1  0
 19 33  1  0
 21 34  1  0
 22 35  1  0
 23 36  1  0
M  END
>  <Energy>  (677) 
617.39827193766871

>  <compound_id>  (677) 
5655

>  <target_id>  (677) 
1

>  <reference_id>  (677) 
48

>  <inspiration_ids>  (677) 
[48, 39]

>  <energy_score>  (677) 
554.6291029976229

>  <distance_score>  (677) 
6.649936534028915

>  <path>  (677) 
/opt/xchem-fragalysis-2/maxwin/BulkDock/SCRATCH/511018/C5655-P48/C5655-P48.minimised.mol

>  <scratch_subdir>  (677) 
/opt/xchem-fragalysis-2/maxwin/BulkDock/SCRATCH/511018/C5655-P48

>  <fragmenstein_runtime>  (677) 
6.112151622772217

>  <fragmenstein_outcome>  (677) 
too moved

>  <fragmenstein_mode>  (677) 
expansion

>  <fragmenstein_error>  (677) 


$$$$
C5655-P39
     RDKit          3D

 36 39  0  0  0  0  0  0  0  0999 V2000
   -8.4417  -29.8161   25.6299 O   0  0  0  0  0  0  0  0  0  0  0  0
   -9.3806  -29.6351   24.9195 C   0  0  0  0  0  0  0  0  0  0  0  0
  -10.3740  -28.5136   24.8867 N   0  0  0  0  0  0  0  0  0  0  0  0
  -10.5527  -27.3339   25.7910 C   0  0  0  0  0  0  0  0  0  0  0  0
   -9.7509  -26.9500   26.8583 C   0  0  0  0  0  0  0  0  0  0  0  0
  -10.0508  -26.0535   27.8995 C   0  0  0  0  0  0  0  0  0  0  0  0
  -11.2961  -25.5005   27.8360 C   0  0  0  0  0  0  0  0  0  0  0  0
  -11.9378  -24.7111   28.7452 N   0  0  0  0  0  0  0  0  0  0  0  0
  -13.2118  -24.5047   28.3154 C   0  0  0  0  0  0  0  0  0  0  0  0
  -13.3495  -25.0808   27.0695 C   0  0  0  0  0  0  0  0  0  0  0  0
  -12.1308  -25.7148   26.7488 C   0  0  0  0  0  0  0  0  0  0  0  0
  -11.6989  -26.5345   25.6717 C   0  0  0  0  0  0  0  0  0  0  0  0
   -9.5311  -30.7327   23.9051 C   0  0  0  0  0  0  0  0  0  0  0  0
   -9.3576  -32.1267   24.1468 C   0  0  0  0  0  0  0  0  0  0  0  0
   -9.5286  -32.9007   23.0633 N   0  0  0  0  0  0  0  0  0  0  0  0
   -9.8727  -32.0230   22.0944 N   0  0  0  0  0  0  0  0  0  0  0  0
  -10.5099  -32.4554   20.8884 C   0  0  0  0  0  0  0  0  0  0  0  0
  -11.6959  -31.8479   20.4646 C   0  0  0  0  0  0  0  0  0  0  0  0
  -12.3062  -32.2938   19.2999 C   0  0  0  0  0  0  0  0  0  0  0  0
  -11.7744  -33.2618   18.5217 N   0  0  0  0  0  0  0  0  0  0  0  0
  -10.6813  -33.9080   18.9984 C   0  0  0  0  0  0  0  0  0  0  0  0
  -10.0213  -33.5444   20.1673 C   0  0  0  0  0  0  0  0  0  0  0  0
   -9.6543  -30.7238   22.5225 C   0  0  0  0  0  0  0  0  0  0  0  0
  -10.9936  -28.6401   24.0971 H   0  0  0  0  0  0  0  0  0  0  0  0
   -8.7534  -27.3792   26.9159 H   0  0  0  0  0  0  0  0  0  0  0  0
   -9.3617  -25.8831   28.7175 H   0  0  0  0  0  0  0  0  0  0  0  0
  -11.5638  -24.4294   29.6429 H   0  0  0  0  0  0  0  0  0  0  0  0
  -13.8958  -23.9752   28.9602 H   0  0  0  0  0  0  0  0  0  0  0  0
  -14.2458  -25.1035   26.4648 H   0  0  0  0  0  0  0  0  0  0  0  0
  -12.3946  -26.6812   24.8560 H   0  0  0  0  0  0  0  0  0  0  0  0
   -9.1100  -32.5997   25.0903 H   0  0  0  0  0  0  0  0  0  0  0  0
  -12.1731  -31.0965   21.0681 H   0  0  0  0  0  0  0  0  0  0  0  0
  -13.2330  -31.8606   18.9376 H   0  0  0  0  0  0  0  0  0  0  0  0
  -10.3257  -34.7371   18.3910 H   0  0  0  0  0  0  0  0  0  0  0  0
   -9.1361  -34.0836   20.4933 H   0  0  0  0  0  0  0  0  0  0  0  0
   -9.6884  -29.9223   21.8050 H   0  0  0  0  0  0  0  0  0  0  0  0
  1  2  2  0
  2  3  1  0
  3  4  1  0
  4  5  2  0
  5  6  1  0
  6  7  2  0
  7  8  1  0
  8  9  1  0
  9 10  2  0
 10 11  1  0
 11 12  2  0
  2 13  1  0
 13 14  1  0
 14 15  2  0
 15 16  1  0
 16 17  1  0
 17 18  2  0
 18 19  1  0
 19 20  2  0
 20 21  1  0
 21 22  2  0
 16 23  1  0
 12  4  1  0
 23 13  2  0
 11  7  1  0
 22 17  1  0
  3 24  1  0
  5 25  1  0
  6 26  1  0
  8 27  1  0
  9 28  1  0
 10 29  1  0
 12 30  1  0
 14 31  1  0
 18 32  1  0
 19 33  1  0
 21 34  1  0
 22 35  1  0
 23 36  1  0
M  END
>  <Energy>  (678) 
66.632458329311532

>  <compound_id>  (678) 
5655

>  <target_id>  (678) 
1

>  <reference_id>  (678) 
39

>  <inspiration_ids>  (678) 
[48, 39]

>  <energy_score>  (678) 
3.8632893892690845

>  <distance_score>  (678) 
9.330752081041597

>  <path>  (678) 
/opt/xchem-fragalysis-2/maxwin/BulkDock/SCRATCH/511018/C5655-P39/C5655-P39.minimised.mol

>  <scratch_subdir>  (678) 
/opt/xchem-fragalysis-2/maxwin/BulkDock/SCRATCH/511018/C5655-P39

>  <fragmenstein_runtime>  (678) 
8.181978464126587

>  <fragmenstein_outcome>  (678) 
too moved

>  <fragmenstein_mode>  (678) 
expansion

>  <fragmenstein_error>  (678) 


$$$$
C5656-P48
     RDKit          3D

 40 42  0  0  0  0  0  0  0  0999 V2000
   -6.8578  -24.3153   17.9746 C   0  0  0  0  0  0  0  0  0  0  0  0
   -7.8436  -24.6674   18.9290 N   0  0  0  0  0  0  0  0  0  0  0  0
   -7.9359  -24.0959   21.0921 C   0  0  0  0  0  0  0  0  0  0  0  0
   -8.6412  -23.2359   22.9377 C   0  0  0  0  0  0  0  0  0  0  0  0
   -7.8537  -23.2190   23.8592 O   0  0  0  0  0  0  0  0  0  0  0  0
  -10.4266  -22.7550   23.0578 N   0  0  0  0  0  0  0  0  0  0  0  0
  -11.1768  -22.4476   24.1171 C   0  0  0  0  0  0  0  0  0  0  0  0
  -12.2467  -21.8131   24.5921 C   0  0  0  0  0  0  0  0  0  0  0  0
  -12.3497  -22.0324   26.0543 C   0  0  0  0  0  0  0  0  0  0  0  0
  -11.9913  -23.1083   26.9154 C   0  0  0  0  0  0  0  0  0  0  0  0
  -11.9672  -23.3149   28.2683 N   0  0  0  0  0  0  0  0  0  0  0  0
  -11.5962  -24.6151   28.5311 C   0  0  0  0  0  0  0  0  0  0  0  0
  -11.1162  -25.1372   27.3559 C   0  0  0  0  0  0  0  0  0  0  0  0
  -11.2653  -24.1216   26.4017 C   0  0  0  0  0  0  0  0  0  0  0  0
  -10.7729  -23.7219   25.1651 C   0  0  0  0  0  0  0  0  0  0  0  0
   -8.8907  -25.7800   16.7856 S   0  0  0  0  0  0  0  0  0  0  0  0
  -10.1463  -26.5491   17.1087 O   0  0  0  0  0  0  0  0  0  0  0  0
   -7.9730  -26.7305   16.0679 O   0  0  0  0  0  0  0  0  0  0  0  0
   -9.7165  -24.8687   15.1481 C   0  0  0  0  0  0  0  0  0  0  0  0
  -10.2806  -25.7964   14.2432 C   0  0  0  0  0  0  0  0  0  0  0  0
  -10.8163  -25.3515   13.0373 C   0  0  0  0  0  0  0  0  0  0  0  0
  -10.7622  -23.9961   12.7723 C   0  0  0  0  0  0  0  0  0  0  0  0
  -10.2151  -23.0886   13.6148 N   0  0  0  0  0  0  0  0  0  0  0  0
   -9.7089  -23.5326   14.8047 C   0  0  0  0  0  0  0  0  0  0  0  0
   -7.3096  -24.4170   17.0233 H   0  0  0  0  0  0  0  0  0  0  0  0
   -6.4961  -23.3419   17.6922 H   0  0  0  0  0  0  0  0  0  0  0  0
   -6.1897  -25.1426   18.2078 H   0  0  0  0  0  0  0  0  0  0  0  0
   -8.8437  -22.8721   21.3232 H   0  0  0  0  0  0  0  0  0  0  0  0
   -8.7551  -24.8442   20.9752 H   0  0  0  0  0  0  0  0  0  0  0  0
  -10.8466  -22.7741   22.1271 H   0  0  0  0  0  0  0  0  0  0  0  0
  -12.6915  -20.9648   24.0950 H   0  0  0  0  0  0  0  0  0  0  0  0
  -12.4403  -21.1453   26.6444 H   0  0  0  0  0  0  0  0  0  0  0  0
  -12.4314  -22.7121   28.9361 H   0  0  0  0  0  0  0  0  0  0  0  0
  -11.6600  -25.0124   29.5350 H   0  0  0  0  0  0  0  0  0  0  0  0
  -10.6547  -26.1022   27.2390 H   0  0  0  0  0  0  0  0  0  0  0  0
   -9.9015  -24.3206   24.9470 H   0  0  0  0  0  0  0  0  0  0  0  0
  -10.2763  -26.8580   14.4806 H   0  0  0  0  0  0  0  0  0  0  0  0
  -11.2528  -26.0443   12.3278 H   0  0  0  0  0  0  0  0  0  0  0  0
  -11.1649  -23.5834   11.8530 H   0  0  0  0  0  0  0  0  0  0  0  0
   -9.2777  -22.7543   15.4175 H   0  0  0  0  0  0  0  0  0  0  0  0
  1  2  1  0
  2  3  1  0
  3  4  1  0
  4  5  2  0
  4  6  1  0
  6  7  1  0
  7  8  2  0
  8  9  1  0
  9 10  2  0
 10 11  1  0
 11 12  1  0
 12 13  2  0
 13 14  1  0
 14 15  2  0
  2 16  1  0
 16 17  2  0
 16 18  2  0
 16 19  1  0
 19 20  2  0
 20 21  1  0
 21 22  2  0
 22 23  1  0
 23 24  2  0
 15  7  1  0
 24 19  1  0
 14 10  1  0
  1 25  1  0
  1 26  1  0
  1 27  1  0
  3 28  1  0
  3 29  1  0
  6 30  1  0
  8 31  1  0
  9 32  1  0
 11 33  1  0
 12 34  1  0
 13 35  1  0
 15 36  1  0
 20 37  1  0
 21 38  1  0
 22 39  1  0
 24 40  1  0
M  END
>  <Energy>  (679) 
1015.3446699400741

>  <compound_id>  (679) 
5656

>  <target_id>  (679) 
1

>  <reference_id>  (679) 
48

>  <inspiration_ids>  (679) 
[48, 39]

>  <energy_score>  (679) 
997.619651037329

>  <distance_score>  (679) 
6.374132923592794

>  <path>  (679) 
/opt/xchem-fragalysis-2/maxwin/BulkDock/SCRATCH/511018/C5656-P48/C5656-P48.minimised.mol

>  <scratch_subdir>  (679) 
/opt/xchem-fragalysis-2/maxwin/BulkDock/SCRATCH/511018/C5656-P48

>  <fragmenstein_runtime>  (679) 
8.176416158676147

>  <fragmenstein_outcome>  (679) 
too moved

>  <fragmenstein_mode>  (679) 
expansion

>  <fragmenstein_error>  (679) 


$$$$
C5656-P39
     RDKit          3D

 40 42  0  0  0  0  0  0  0  0999 V2000
  -14.2016  -25.1837   19.7788 C   0  0  0  0  0  0  0  0  0  0  0  0
  -13.2322  -24.1614   19.2938 N   0  0  0  0  0  0  0  0  0  0  0  0
  -12.6450  -22.7865   20.5498 C   0  0  0  0  0  0  0  0  0  0  0  0
  -13.0236  -22.5944   22.4178 C   0  0  0  0  0  0  0  0  0  0  0  0
  -14.1465  -22.2475   22.6874 O   0  0  0  0  0  0  0  0  0  0  0  0
  -11.8561  -23.0304   23.3525 N   0  0  0  0  0  0  0  0  0  0  0  0
  -11.8194  -23.2600   24.8626 C   0  0  0  0  0  0  0  0  0  0  0  0
  -11.8341  -22.4321   25.9539 C   0  0  0  0  0  0  0  0  0  0  0  0
  -11.7539  -22.7531   27.3574 C   0  0  0  0  0  0  0  0  0  0  0  0
  -11.6342  -24.0802   27.6852 C   0  0  0  0  0  0  0  0  0  0  0  0
  -11.5645  -24.7230   28.8937 N   0  0  0  0  0  0  0  0  0  0  0  0
  -11.3619  -26.0616   28.6838 C   0  0  0  0  0  0  0  0  0  0  0  0
  -11.3152  -26.2692   27.3246 C   0  0  0  0  0  0  0  0  0  0  0  0
  -11.4939  -25.0192   26.6842 C   0  0  0  0  0  0  0  0  0  0  0  0
  -11.5207  -24.5790   25.3259 C   0  0  0  0  0  0  0  0  0  0  0  0
  -14.4512  -23.7072   17.6140 S   0  0  0  0  0  0  0  0  0  0  0  0
  -15.7919  -24.2235   17.8492 O   0  0  0  0  0  0  0  0  0  0  0  0
  -14.3164  -22.3119   17.2802 O   0  0  0  0  0  0  0  0  0  0  0  0
  -14.0785  -24.7753   16.2154 C   0  0  0  0  0  0  0  0  0  0  0  0
  -13.3390  -25.9542   16.2427 C   0  0  0  0  0  0  0  0  0  0  0  0
  -13.1083  -26.6334   15.0378 C   0  0  0  0  0  0  0  0  0  0  0  0
  -13.6505  -26.1302   13.8607 C   0  0  0  0  0  0  0  0  0  0  0  0
  -14.4141  -25.0195   13.8099 N   0  0  0  0  0  0  0  0  0  0  0  0
  -14.6237  -24.3747   14.9896 C   0  0  0  0  0  0  0  0  0  0  0  0
  -15.2610  -24.9914   19.6737 H   0  0  0  0  0  0  0  0  0  0  0  0
  -14.0756  -26.0355   19.1384 H   0  0  0  0  0  0  0  0  0  0  0  0
  -14.1493  -25.3638   20.8200 H   0  0  0  0  0  0  0  0  0  0  0  0
  -11.6472  -23.1731   20.7021 H   0  0  0  0  0  0  0  0  0  0  0  0
  -12.1824  -21.9957   19.9923 H   0  0  0  0  0  0  0  0  0  0  0  0
  -11.0166  -23.1766   22.7977 H   0  0  0  0  0  0  0  0  0  0  0  0
  -11.7842  -21.3666   25.7440 H   0  0  0  0  0  0  0  0  0  0  0  0
  -11.7492  -21.9660   28.1029 H   0  0  0  0  0  0  0  0  0  0  0  0
  -11.6429  -24.2801   29.8006 H   0  0  0  0  0  0  0  0  0  0  0  0
  -11.2629  -26.7401   29.5208 H   0  0  0  0  0  0  0  0  0  0  0  0
  -11.1712  -27.2165   26.8316 H   0  0  0  0  0  0  0  0  0  0  0  0
  -11.2959  -25.3960   24.6620 H   0  0  0  0  0  0  0  0  0  0  0  0
  -12.9209  -26.3400   17.1662 H   0  0  0  0  0  0  0  0  0  0  0  0
  -12.5115  -27.5397   15.0196 H   0  0  0  0  0  0  0  0  0  0  0  0
  -13.4865  -26.6273   12.9089 H   0  0  0  0  0  0  0  0  0  0  0  0
  -15.2357  -23.4771   14.9143 H   0  0  0  0  0  0  0  0  0  0  0  0
  1  2  1  0
  2  3  1  0
  3  4  1  0
  4  5  2  0
  4  6  1  0
  6  7  1  0
  7  8  2  0
  8  9  1  0
  9 10  2  0
 10 11  1  0
 11 12  1  0
 12 13  2  0
 13 14  1  0
 14 15  2  0
  2 16  1  0
 16 17  2  0
 16 18  2  0
 16 19  1  0
 19 20  2  0
 20 21  1  0
 21 22  2  0
 22 23  1  0
 23 24  2  0
 15  7  1  0
 24 19  1  0
 14 10  1  0
  1 25  1  0
  1 26  1  0
  1 27  1  0
  3 28  1  0
  3 29  1  0
  6 30  1  0
  8 31  1  0
  9 32  1  0
 11 33  1  0
 12 34  1  0
 13 35  1  0
 15 36  1  0
 20 37  1  0
 21 38  1  0
 22 39  1  0
 24 40  1  0
M  END
>  <Energy>  (680) 
212.79465836241567

>  <compound_id>  (680) 
5656

>  <target_id>  (680) 
1

>  <reference_id>  (680) 
39

>  <inspiration_ids>  (680) 
[48, 39]

>  <energy_score>  (680) 
195.0696394596702

>  <distance_score>  (680) 
6.830043295512628

>  <path>  (680) 
/opt/xchem-fragalysis-2/maxwin/BulkDock/SCRATCH/511018/C5656-P39/C5656-P39.minimised.mol

>  <scratch_subdir>  (680) 
/opt/xchem-fragalysis-2/maxwin/BulkDock/SCRATCH/511018/C5656-P39

>  <fragmenstein_runtime>  (680) 
20.296412229537964

>  <fragmenstein_outcome>  (680) 
too moved

>  <fragmenstein_mode>  (680) 
expansion

>  <fragmenstein_error>  (680) 


$$$$
C5658-P48
     RDKit          3D

 36 39  0  0  0  0  0  0  0  0999 V2000
  -13.4609  -28.4028   16.1789 C   0  0  0  0  0  0  0  0  0  0  0  0
  -13.7581  -29.6141   15.5905 C   0  0  0  0  0  0  0  0  0  0  0  0
  -13.5871  -30.8020   16.2147 N   0  0  0  0  0  0  0  0  0  0  0  0
  -13.0820  -30.7815   17.4852 C   0  0  0  0  0  0  0  0  0  0  0  0
  -12.7327  -29.6313   18.1733 C   0  0  0  0  0  0  0  0  0  0  0  0
  -11.9639  -29.6198   19.4606 C   0  0  0  0  0  0  0  0  0  0  0  0
  -11.4009  -30.6385   20.2180 N   0  0  0  0  0  0  0  0  0  0  0  0
  -10.5050  -30.0870   21.2943 N   0  0  0  0  0  0  0  0  0  0  0  0
  -10.4857  -28.2640   21.3305 C   0  0  0  0  0  0  0  0  0  0  0  0
  -10.3726  -27.2328   22.8550 N   0  0  0  0  0  0  0  0  0  0  0  0
  -10.5970  -27.4253   24.8156 C   0  0  0  0  0  0  0  0  0  0  0  0
  -11.7907  -27.2440   25.9092 C   0  0  0  0  0  0  0  0  0  0  0  0
  -12.6098  -26.1036   25.9165 C   0  0  0  0  0  0  0  0  0  0  0  0
  -12.6053  -25.2009   26.9812 C   0  0  0  0  0  0  0  0  0  0  0  0
  -12.1462  -25.6478   28.2069 C   0  0  0  0  0  0  0  0  0  0  0  0
  -12.1248  -25.0172   29.4276 N   0  0  0  0  0  0  0  0  0  0  0  0
  -11.6038  -25.8650   30.3676 C   0  0  0  0  0  0  0  0  0  0  0  0
  -11.2757  -27.0475   29.7414 C   0  0  0  0  0  0  0  0  0  0  0  0
  -11.6132  -26.9173   28.3681 C   0  0  0  0  0  0  0  0  0  0  0  0
  -11.4116  -27.7091   27.2107 C   0  0  0  0  0  0  0  0  0  0  0  0
  -11.6439  -28.2470   19.9772 N   0  0  0  0  0  0  0  0  0  0  0  0
  -12.9494  -28.4189   17.4790 C   0  0  0  0  0  0  0  0  0  0  0  0
  -13.6027  -27.4700   15.6454 H   0  0  0  0  0  0  0  0  0  0  0  0
  -14.1516  -29.6704   14.5799 H   0  0  0  0  0  0  0  0  0  0  0  0
  -12.9218  -31.7627   17.9252 H   0  0  0  0  0  0  0  0  0  0  0  0
   -9.9240  -30.6362   21.9184 H   0  0  0  0  0  0  0  0  0  0  0  0
  -11.2208  -27.6571   23.1112 H   0  0  0  0  0  0  0  0  0  0  0  0
   -9.8368  -28.1093   25.1223 H   0  0  0  0  0  0  0  0  0  0  0  0
  -10.2077  -26.5081   25.3397 H   0  0  0  0  0  0  0  0  0  0  0  0
  -13.1778  -25.7599   25.0593 H   0  0  0  0  0  0  0  0  0  0  0  0
  -12.9866  -24.1924   26.8452 H   0  0  0  0  0  0  0  0  0  0  0  0
  -12.4885  -24.0837   29.5986 H   0  0  0  0  0  0  0  0  0  0  0  0
  -11.5069  -25.5520   31.3991 H   0  0  0  0  0  0  0  0  0  0  0  0
  -10.8189  -27.9036   30.2215 H   0  0  0  0  0  0  0  0  0  0  0  0
  -10.7596  -28.5672   27.3514 H   0  0  0  0  0  0  0  0  0  0  0  0
  -12.6694  -27.4703   17.9374 H   0  0  0  0  0  0  0  0  0  0  0  0
  1  2  2  0
  2  3  1  0
  3  4  2  0
  4  5  1  0
  5  6  1  0
  6  7  2  0
  7  8  1  0
  8  9  1  0
  9 10  1  0
 10 11  1  0
 11 12  1  0
 12 13  2  0
 13 14  1  0
 14 15  2  0
 15 16  1  0
 16 17  1  0
 17 18  2  0
 18 19  1  0
 19 20  2  0
  9 21  2  0
  5 22  2  0
 22  1  1  0
 21  6  1  0
 20 12  1  0
 19 15  1  0
  1 23  1  0
  2 24  1  0
  4 25  1  0
  8 26  1  0
 10 27  1  0
 11 28  1  0
 11 29  1  0
 13 30  1  0
 14 31  1  0
 16 32  1  0
 17 33  1  0
 18 34  1  0
 20 35  1  0
 22 36  1  0
M  END
>  <Energy>  (681) 
474.53338744443488

>  <compound_id>  (681) 
5658

>  <target_id>  (681) 
1

>  <reference_id>  (681) 
48

>  <inspiration_ids>  (681) 
[48, 39]

>  <energy_score>  (681) 
416.3998200920864

>  <distance_score>  (681) 
7.258814783499845

>  <path>  (681) 
/opt/xchem-fragalysis-2/maxwin/BulkDock/SCRATCH/511018/C5658-P48/C5658-P48.minimised.mol

>  <scratch_subdir>  (681) 
/opt/xchem-fragalysis-2/maxwin/BulkDock/SCRATCH/511018/C5658-P48

>  <fragmenstein_runtime>  (681) 
3.9403882026672363

>  <fragmenstein_outcome>  (681) 
too moved

>  <fragmenstein_mode>  (681) 
expansion

>  <fragmenstein_error>  (681) 


$$$$
C5658-P39
     RDKit          3D

 36 39  0  0  0  0  0  0  0  0999 V2000
  -12.5841  -32.4906   19.6381 C   0  0  0  0  0  0  0  0  0  0  0  0
  -11.8878  -33.1954   18.6810 C   0  0  0  0  0  0  0  0  0  0  0  0
  -10.5599  -33.4599   18.7972 N   0  0  0  0  0  0  0  0  0  0  0  0
   -9.9337  -33.1319   19.9811 C   0  0  0  0  0  0  0  0  0  0  0  0
  -10.5474  -32.4348   21.0050 C   0  0  0  0  0  0  0  0  0  0  0  0
   -9.8548  -32.0103   22.2329 C   0  0  0  0  0  0  0  0  0  0  0  0
   -9.7589  -32.7374   23.3637 N   0  0  0  0  0  0  0  0  0  0  0  0
   -9.4403  -31.7836   24.2892 N   0  0  0  0  0  0  0  0  0  0  0  0
   -9.4943  -30.5363   23.7335 C   0  0  0  0  0  0  0  0  0  0  0  0
   -9.9305  -29.3898   24.3293 N   0  0  0  0  0  0  0  0  0  0  0  0
   -9.7723  -28.7632   25.5942 C   0  0  0  0  0  0  0  0  0  0  0  0
  -10.4814  -27.3215   25.9831 C   0  0  0  0  0  0  0  0  0  0  0  0
  -11.5063  -26.6862   25.2743 C   0  0  0  0  0  0  0  0  0  0  0  0
  -12.1875  -25.5196   25.7011 C   0  0  0  0  0  0  0  0  0  0  0  0
  -11.7643  -24.9013   26.8622 C   0  0  0  0  0  0  0  0  0  0  0  0
  -12.1285  -23.7073   27.4289 N   0  0  0  0  0  0  0  0  0  0  0  0
  -11.5236  -23.5766   28.6481 C   0  0  0  0  0  0  0  0  0  0  0  0
  -10.6855  -24.6578   28.8160 C   0  0  0  0  0  0  0  0  0  0  0  0
  -10.7885  -25.4631   27.6583 C   0  0  0  0  0  0  0  0  0  0  0  0
  -10.1462  -26.6336   27.1975 C   0  0  0  0  0  0  0  0  0  0  0  0
   -9.5254  -30.6906   22.4241 N   0  0  0  0  0  0  0  0  0  0  0  0
  -11.8980  -32.1055   20.7971 C   0  0  0  0  0  0  0  0  0  0  0  0
  -13.6342  -32.2589   19.5060 H   0  0  0  0  0  0  0  0  0  0  0  0
  -12.3573  -33.5352   17.7624 H   0  0  0  0  0  0  0  0  0  0  0  0
   -8.8833  -33.4098   20.0398 H   0  0  0  0  0  0  0  0  0  0  0  0
   -9.4018  -32.0371   25.2671 H   0  0  0  0  0  0  0  0  0  0  0  0
  -10.4963  -28.8711   23.6634 H   0  0  0  0  0  0  0  0  0  0  0  0
   -8.7074  -28.6473   25.7686 H   0  0  0  0  0  0  0  0  0  0  0  0
  -10.1768  -29.5893   26.1831 H   0  0  0  0  0  0  0  0  0  0  0  0
  -11.8894  -27.1401   24.3731 H   0  0  0  0  0  0  0  0  0  0  0  0
  -13.0347  -25.1255   25.1540 H   0  0  0  0  0  0  0  0  0  0  0  0
  -12.7177  -23.0179   26.9779 H   0  0  0  0  0  0  0  0  0  0  0  0
  -11.7204  -22.7221   29.2812 H   0  0  0  0  0  0  0  0  0  0  0  0
  -10.0553  -24.8506   29.6745 H   0  0  0  0  0  0  0  0  0  0  0  0
   -9.2988  -26.9196   27.8106 H   0  0  0  0  0  0  0  0  0  0  0  0
  -12.4320  -31.5713   21.5751 H   0  0  0  0  0  0  0  0  0  0  0  0
  1  2  2  0
  2  3  1  0
  3  4  2  0
  4  5  1  0
  5  6  1  0
  6  7  2  0
  7  8  1  0
  8  9  1  0
  9 10  1  0
 10 11  1  0
 11 12  1  0
 12 13  2  0
 13 14  1  0
 14 15  2  0
 15 16  1  0
 16 17  1  0
 17 18  2  0
 18 19  1  0
 19 20  2  0
  9 21  2  0
  5 22  2  0
 22  1  1  0
 21  6  1  0
 20 12  1  0
 19 15  1  0
  1 23  1  0
  2 24  1  0
  4 25  1  0
  8 26  1  0
 10 27  1  0
 11 28  1  0
 11 29  1  0
 13 30  1  0
 14 31  1  0
 16 32  1  0
 17 33  1  0
 18 34  1  0
 20 35  1  0
 22 36  1  0
M  END
>  <Energy>  (682) 
85.623620390161918

>  <compound_id>  (682) 
5658

>  <target_id>  (682) 
1

>  <reference_id>  (682) 
39

>  <inspiration_ids>  (682) 
[48, 39]

>  <energy_score>  (682) 
27.49005303781172

>  <distance_score>  (682) 
9.261010096988628

>  <path>  (682) 
/opt/xchem-fragalysis-2/maxwin/BulkDock/SCRATCH/511018/C5658-P39/C5658-P39.minimised.mol

>  <scratch_subdir>  (682) 
/opt/xchem-fragalysis-2/maxwin/BulkDock/SCRATCH/511018/C5658-P39

>  <fragmenstein_runtime>  (682) 
10.403186559677124

>  <fragmenstein_outcome>  (682) 
too moved

>  <fragmenstein_mode>  (682) 
expansion

>  <fragmenstein_error>  (682) 


$$$$
C5653-P48
     RDKit          3D

 37 40  0  0  0  0  0  0  0  0999 V2000
  -15.9643  -28.6475   15.1639 C   0  0  0  0  0  0  0  0  0  0  0  0
  -15.7851  -28.3258   16.5110 C   0  0  0  0  0  0  0  0  0  0  0  0
  -14.9572  -27.2557   16.8151 C   0  0  0  0  0  0  0  0  0  0  0  0
  -14.6852  -26.8256   18.1602 N   0  0  0  0  0  0  0  0  0  0  0  0
  -15.0970  -27.2689   19.4392 C   0  0  0  0  0  0  0  0  0  0  0  0
  -14.2872  -26.6239   20.4251 C   0  0  0  0  0  0  0  0  0  0  0  0
  -14.2534  -26.7726   22.2916 N   0  0  0  0  0  0  0  0  0  0  0  0
  -15.5197  -26.5859   23.3647 C   0  0  0  0  0  0  0  0  0  0  0  0
  -14.9171  -26.5405   24.8055 C   0  0  0  0  0  0  0  0  0  0  0  0
  -15.1444  -27.5551   25.7453 C   0  0  0  0  0  0  0  0  0  0  0  0
  -14.3644  -27.6955   26.9093 C   0  0  0  0  0  0  0  0  0  0  0  0
  -13.3270  -26.7836   27.1136 C   0  0  0  0  0  0  0  0  0  0  0  0
  -12.3941  -26.6929   28.1221 N   0  0  0  0  0  0  0  0  0  0  0  0
  -11.6475  -25.5573   27.9650 C   0  0  0  0  0  0  0  0  0  0  0  0
  -12.0913  -24.9089   26.8374 C   0  0  0  0  0  0  0  0  0  0  0  0
  -13.1400  -25.6878   26.2747 C   0  0  0  0  0  0  0  0  0  0  0  0
  -14.0177  -25.5264   25.1721 C   0  0  0  0  0  0  0  0  0  0  0  0
  -13.5984  -25.6942   19.5685 C   0  0  0  0  0  0  0  0  0  0  0  0
  -13.8849  -25.7584   18.2838 N   0  0  0  0  0  0  0  0  0  0  0  0
  -14.3399  -26.5701   15.7431 C   0  0  0  0  0  0  0  0  0  0  0  0
  -14.5807  -26.9697   14.4385 C   0  0  0  0  0  0  0  0  0  0  0  0
  -15.3863  -27.9990   14.1258 N   0  0  0  0  0  0  0  0  0  0  0  0
  -16.6093  -29.4750   14.8773 H   0  0  0  0  0  0  0  0  0  0  0  0
  -16.2924  -28.9060   17.2720 H   0  0  0  0  0  0  0  0  0  0  0  0
  -15.8519  -28.0358   19.5211 H   0  0  0  0  0  0  0  0  0  0  0  0
  -13.6068  -26.0680   22.6533 H   0  0  0  0  0  0  0  0  0  0  0  0
  -16.1440  -25.7041   23.2398 H   0  0  0  0  0  0  0  0  0  0  0  0
  -16.2672  -27.3730   23.1981 H   0  0  0  0  0  0  0  0  0  0  0  0
  -15.9048  -28.3122   25.5495 H   0  0  0  0  0  0  0  0  0  0  0  0
  -14.5428  -28.5187   27.5963 H   0  0  0  0  0  0  0  0  0  0  0  0
  -12.3097  -27.3410   28.8951 H   0  0  0  0  0  0  0  0  0  0  0  0
  -10.8879  -25.2853   28.6864 H   0  0  0  0  0  0  0  0  0  0  0  0
  -11.7210  -23.9549   26.4817 H   0  0  0  0  0  0  0  0  0  0  0  0
  -13.9515  -24.6232   24.5723 H   0  0  0  0  0  0  0  0  0  0  0  0
  -12.9169  -24.9185   19.8793 H   0  0  0  0  0  0  0  0  0  0  0  0
  -13.6713  -25.7308   15.9088 H   0  0  0  0  0  0  0  0  0  0  0  0
  -14.1187  -26.4599   13.5984 H   0  0  0  0  0  0  0  0  0  0  0  0
  1  2  2  0
  2  3  1  0
  3  4  1  0
  4  5  1  0
  5  6  2  0
  6  7  1  0
  7  8  1  0
  8  9  1  0
  9 10  2  0
 10 11  1  0
 11 12  2  0
 12 13  1  0
 13 14  1  0
 14 15  2  0
 15 16  1  0
 16 17  2  0
  6 18  1  0
 18 19  2  0
  3 20  2  0
 20 21  1  0
 21 22  2  0
 22  1  1  0
 19  4  1  0
 17  9  1  0
 16 12  1  0
  1 23  1  0
  2 24  1  0
  5 25  1  0
  7 26  1  0
  8 27  1  0
  8 28  1  0
 10 29  1  0
 11 30  1  0
 13 31  1  0
 14 32  1  0
 15 33  1  0
 17 34  1  0
 18 35  1  0
 20 36  1  0
 21 37  1  0
M  END
>  <Energy>  (683) 
158.07093430960006

>  <compound_id>  (683) 
5653

>  <target_id>  (683) 
1

>  <reference_id>  (683) 
48

>  <inspiration_ids>  (683) 
[48, 39]

>  <energy_score>  (683) 
100.04590141632036

>  <distance_score>  (683) 
7.361738136118702

>  <path>  (683) 
/opt/xchem-fragalysis-2/maxwin/BulkDock/SCRATCH/511018/C5653-P48/C5653-P48.minimised.mol

>  <scratch_subdir>  (683) 
/opt/xchem-fragalysis-2/maxwin/BulkDock/SCRATCH/511018/C5653-P48

>  <fragmenstein_runtime>  (683) 
4.4142937660217285

>  <fragmenstein_outcome>  (683) 
too moved

>  <fragmenstein_mode>  (683) 
expansion

>  <fragmenstein_error>  (683) 


$$$$
C5653-P39
     RDKit          3D

 37 40  0  0  0  0  0  0  0  0999 V2000
  -11.4433  -32.4610   20.0115 C   0  0  0  0  0  0  0  0  0  0  0  0
  -11.0364  -31.8907   21.2057 C   0  0  0  0  0  0  0  0  0  0  0  0
   -9.7354  -32.1252   21.6673 C   0  0  0  0  0  0  0  0  0  0  0  0
   -9.3375  -31.6650   22.9644 N   0  0  0  0  0  0  0  0  0  0  0  0
   -9.4022  -30.3690   23.4607 C   0  0  0  0  0  0  0  0  0  0  0  0
   -9.7029  -30.4547   24.8014 C   0  0  0  0  0  0  0  0  0  0  0  0
  -10.2649  -29.5467   25.6882 N   0  0  0  0  0  0  0  0  0  0  0  0
  -10.2498  -28.0115   25.6182 C   0  0  0  0  0  0  0  0  0  0  0  0
  -11.0611  -26.9530   26.4669 C   0  0  0  0  0  0  0  0  0  0  0  0
  -11.2835  -25.6992   25.8553 C   0  0  0  0  0  0  0  0  0  0  0  0
  -11.7033  -24.5382   26.5198 C   0  0  0  0  0  0  0  0  0  0  0  0
  -11.8318  -24.6382   27.8940 C   0  0  0  0  0  0  0  0  0  0  0  0
  -12.0767  -23.6672   28.8330 N   0  0  0  0  0  0  0  0  0  0  0  0
  -12.1027  -24.2244   30.0791 C   0  0  0  0  0  0  0  0  0  0  0  0
  -11.8660  -25.5738   29.9429 C   0  0  0  0  0  0  0  0  0  0  0  0
  -11.7008  -25.8502   28.5612 C   0  0  0  0  0  0  0  0  0  0  0  0
  -11.4169  -27.0216   27.8178 C   0  0  0  0  0  0  0  0  0  0  0  0
   -9.4376  -31.8245   25.0734 C   0  0  0  0  0  0  0  0  0  0  0  0
   -9.1371  -32.5437   23.9793 N   0  0  0  0  0  0  0  0  0  0  0  0
   -8.8979  -32.9462   20.9206 C   0  0  0  0  0  0  0  0  0  0  0  0
   -9.3684  -33.4210   19.7018 C   0  0  0  0  0  0  0  0  0  0  0  0
  -10.6108  -33.1637   19.2059 N   0  0  0  0  0  0  0  0  0  0  0  0
  -12.4582  -32.3384   19.6444 H   0  0  0  0  0  0  0  0  0  0  0  0
  -11.7615  -31.3699   21.8086 H   0  0  0  0  0  0  0  0  0  0  0  0
   -9.4306  -29.5672   22.7450 H   0  0  0  0  0  0  0  0  0  0  0  0
  -10.5359  -29.9657   26.5791 H   0  0  0  0  0  0  0  0  0  0  0  0
   -9.2205  -27.7638   25.8278 H   0  0  0  0  0  0  0  0  0  0  0  0
  -10.5613  -27.7966   24.6070 H   0  0  0  0  0  0  0  0  0  0  0  0
  -11.0454  -25.5799   24.8091 H   0  0  0  0  0  0  0  0  0  0  0  0
  -11.8232  -23.5963   25.9936 H   0  0  0  0  0  0  0  0  0  0  0  0
  -12.1741  -22.6833   28.6276 H   0  0  0  0  0  0  0  0  0  0  0  0
  -12.2856  -23.6248   30.9617 H   0  0  0  0  0  0  0  0  0  0  0  0
  -11.8091  -26.2808   30.7599 H   0  0  0  0  0  0  0  0  0  0  0  0
  -11.4208  -27.9461   28.3619 H   0  0  0  0  0  0  0  0  0  0  0  0
   -9.4853  -32.3349   26.0265 H   0  0  0  0  0  0  0  0  0  0  0  0
   -7.8976  -33.1937   21.2606 H   0  0  0  0  0  0  0  0  0  0  0  0
   -8.7329  -34.0362   19.0689 H   0  0  0  0  0  0  0  0  0  0  0  0
  1  2  2  0
  2  3  1  0
  3  4  1  0
  4  5  1  0
  5  6  2  0
  6  7  1  0
  7  8  1  0
  8  9  1  0
  9 10  2  0
 10 11  1  0
 11 12  2  0
 12 13  1  0
 13 14  1  0
 14 15  2  0
 15 16  1  0
 16 17  2  0
  6 18  1  0
 18 19  2  0
  3 20  2  0
 20 21  1  0
 21 22  2  0
 22  1  1  0
 19  4  1  0
 17  9  1  0
 16 12  1  0
  1 23  1  0
  2 24  1  0
  5 25  1  0
  7 26  1  0
  8 27  1  0
  8 28  1  0
 10 29  1  0
 11 30  1  0
 13 31  1  0
 14 32  1  0
 15 33  1  0
 17 34  1  0
 18 35  1  0
 20 36  1  0
 21 37  1  0
M  END
>  <Energy>  (684) 
87.607097715559888

>  <compound_id>  (684) 
5653

>  <target_id>  (684) 
1

>  <reference_id>  (684) 
39

>  <inspiration_ids>  (684) 
[48, 39]

>  <energy_score>  (684) 
29.58206482228161

>  <distance_score>  (684) 
9.520632435503995

>  <path>  (684) 
/opt/xchem-fragalysis-2/maxwin/BulkDock/SCRATCH/511018/C5653-P39/C5653-P39.minimised.mol

>  <scratch_subdir>  (684) 
/opt/xchem-fragalysis-2/maxwin/BulkDock/SCRATCH/511018/C5653-P39

>  <fragmenstein_runtime>  (684) 
6.796569108963013

>  <fragmenstein_outcome>  (684) 
too moved

>  <fragmenstein_mode>  (684) 
expansion

>  <fragmenstein_error>  (684) 


$$$$
C5658-P48
     RDKit          3D

 36 39  0  0  0  0  0  0  0  0999 V2000
  -13.4609  -28.4028   16.1789 C   0  0  0  0  0  0  0  0  0  0  0  0
  -13.7581  -29.6141   15.5905 C   0  0  0  0  0  0  0  0  0  0  0  0
  -13.5871  -30.8020   16.2147 N   0  0  0  0  0  0  0  0  0  0  0  0
  -13.0820  -30.7815   17.4852 C   0  0  0  0  0  0  0  0  0  0  0  0
  -12.7327  -29.6313   18.1733 C   0  0  0  0  0  0  0  0  0  0  0  0
  -11.9639  -29.6198   19.4606 C   0  0  0  0  0  0  0  0  0  0  0  0
  -11.4009  -30.6385   20.2180 N   0  0  0  0  0  0  0  0  0  0  0  0
  -10.5050  -30.0870   21.2943 N   0  0  0  0  0  0  0  0  0  0  0  0
  -10.4857  -28.2640   21.3305 C   0  0  0  0  0  0  0  0  0  0  0  0
  -10.3726  -27.2328   22.8550 N   0  0  0  0  0  0  0  0  0  0  0  0
  -10.5970  -27.4253   24.8156 C   0  0  0  0  0  0  0  0  0  0  0  0
  -11.7907  -27.2440   25.9092 C   0  0  0  0  0  0  0  0  0  0  0  0
  -12.6098  -26.1036   25.9165 C   0  0  0  0  0  0  0  0  0  0  0  0
  -12.6053  -25.2009   26.9812 C   0  0  0  0  0  0  0  0  0  0  0  0
  -12.1462  -25.6478   28.2069 C   0  0  0  0  0  0  0  0  0  0  0  0
  -12.1248  -25.0172   29.4276 N   0  0  0  0  0  0  0  0  0  0  0  0
  -11.6038  -25.8650   30.3676 C   0  0  0  0  0  0  0  0  0  0  0  0
  -11.2757  -27.0475   29.7414 C   0  0  0  0  0  0  0  0  0  0  0  0
  -11.6132  -26.9173   28.3681 C   0  0  0  0  0  0  0  0  0  0  0  0
  -11.4116  -27.7091   27.2107 C   0  0  0  0  0  0  0  0  0  0  0  0
  -11.6439  -28.2470   19.9772 N   0  0  0  0  0  0  0  0  0  0  0  0
  -12.9494  -28.4189   17.4790 C   0  0  0  0  0  0  0  0  0  0  0  0
  -13.6027  -27.4700   15.6454 H   0  0  0  0  0  0  0  0  0  0  0  0
  -14.1516  -29.6704   14.5799 H   0  0  0  0  0  0  0  0  0  0  0  0
  -12.9218  -31.7627   17.9252 H   0  0  0  0  0  0  0  0  0  0  0  0
   -9.9240  -30.6362   21.9184 H   0  0  0  0  0  0  0  0  0  0  0  0
  -11.2208  -27.6571   23.1112 H   0  0  0  0  0  0  0  0  0  0  0  0
   -9.8368  -28.1093   25.1223 H   0  0  0  0  0  0  0  0  0  0  0  0
  -10.2077  -26.5081   25.3397 H   0  0  0  0  0  0  0  0  0  0  0  0
  -13.1778  -25.7599   25.0593 H   0  0  0  0  0  0  0  0  0  0  0  0
  -12.9866  -24.1924   26.8452 H   0  0  0  0  0  0  0  0  0  0  0  0
  -12.4885  -24.0837   29.5986 H   0  0  0  0  0  0  0  0  0  0  0  0
  -11.5069  -25.5520   31.3991 H   0  0  0  0  0  0  0  0  0  0  0  0
  -10.8189  -27.9036   30.2215 H   0  0  0  0  0  0  0  0  0  0  0  0
  -10.7596  -28.5672   27.3514 H   0  0  0  0  0  0  0  0  0  0  0  0
  -12.6694  -27.4703   17.9374 H   0  0  0  0  0  0  0  0  0  0  0  0
  1  2  2  0
  2  3  1  0
  3  4  2  0
  4  5  1  0
  5  6  1  0
  6  7  2  0
  7  8  1  0
  8  9  1  0
  9 10  1  0
 10 11  1  0
 11 12  1  0
 12 13  2  0
 13 14  1  0
 14 15  2  0
 15 16  1  0
 16 17  1  0
 17 18  2  0
 18 19  1  0
 19 20  2  0
  9 21  2  0
  5 22  2  0
 22  1  1  0
 21  6  1  0
 20 12  1  0
 19 15  1  0
  1 23  1  0
  2 24  1  0
  4 25  1  0
  8 26  1  0
 10 27  1  0
 11 28  1  0
 11 29  1  0
 13 30  1  0
 14 31  1  0
 16 32  1  0
 17 33  1  0
 18 34  1  0
 20 35  1  0
 22 36  1  0
M  END
>  <Energy>  (685) 
474.53338744443488

>  <compound_id>  (685) 
5658

>  <target_id>  (685) 
1

>  <reference_id>  (685) 
48

>  <inspiration_ids>  (685) 
[48, 39]

>  <energy_score>  (685) 
416.3998200920864

>  <distance_score>  (685) 
7.258814783499845

>  <path>  (685) 
/opt/xchem-fragalysis-2/maxwin/BulkDock/SCRATCH/511018/C5658-P48/C5658-P48.minimised.mol

>  <scratch_subdir>  (685) 
/opt/xchem-fragalysis-2/maxwin/BulkDock/SCRATCH/511018/C5658-P48

>  <fragmenstein_runtime>  (685) 
5.905490875244141

>  <fragmenstein_outcome>  (685) 
too moved

>  <fragmenstein_mode>  (685) 
expansion

>  <fragmenstein_error>  (685) 


$$$$
C5658-P39
     RDKit          3D

 36 39  0  0  0  0  0  0  0  0999 V2000
  -12.5841  -32.4906   19.6381 C   0  0  0  0  0  0  0  0  0  0  0  0
  -11.8878  -33.1954   18.6810 C   0  0  0  0  0  0  0  0  0  0  0  0
  -10.5599  -33.4599   18.7972 N   0  0  0  0  0  0  0  0  0  0  0  0
   -9.9337  -33.1319   19.9811 C   0  0  0  0  0  0  0  0  0  0  0  0
  -10.5474  -32.4348   21.0050 C   0  0  0  0  0  0  0  0  0  0  0  0
   -9.8548  -32.0103   22.2329 C   0  0  0  0  0  0  0  0  0  0  0  0
   -9.7589  -32.7374   23.3637 N   0  0  0  0  0  0  0  0  0  0  0  0
   -9.4403  -31.7836   24.2892 N   0  0  0  0  0  0  0  0  0  0  0  0
   -9.4943  -30.5363   23.7335 C   0  0  0  0  0  0  0  0  0  0  0  0
   -9.9305  -29.3898   24.3293 N   0  0  0  0  0  0  0  0  0  0  0  0
   -9.7723  -28.7632   25.5942 C   0  0  0  0  0  0  0  0  0  0  0  0
  -10.4814  -27.3215   25.9831 C   0  0  0  0  0  0  0  0  0  0  0  0
  -11.5063  -26.6862   25.2743 C   0  0  0  0  0  0  0  0  0  0  0  0
  -12.1875  -25.5196   25.7011 C   0  0  0  0  0  0  0  0  0  0  0  0
  -11.7643  -24.9013   26.8622 C   0  0  0  0  0  0  0  0  0  0  0  0
  -12.1285  -23.7073   27.4289 N   0  0  0  0  0  0  0  0  0  0  0  0
  -11.5236  -23.5766   28.6481 C   0  0  0  0  0  0  0  0  0  0  0  0
  -10.6855  -24.6578   28.8160 C   0  0  0  0  0  0  0  0  0  0  0  0
  -10.7885  -25.4631   27.6583 C   0  0  0  0  0  0  0  0  0  0  0  0
  -10.1462  -26.6336   27.1975 C   0  0  0  0  0  0  0  0  0  0  0  0
   -9.5254  -30.6906   22.4241 N   0  0  0  0  0  0  0  0  0  0  0  0
  -11.8980  -32.1055   20.7971 C   0  0  0  0  0  0  0  0  0  0  0  0
  -13.6342  -32.2589   19.5060 H   0  0  0  0  0  0  0  0  0  0  0  0
  -12.3573  -33.5352   17.7624 H   0  0  0  0  0  0  0  0  0  0  0  0
   -8.8833  -33.4098   20.0398 H   0  0  0  0  0  0  0  0  0  0  0  0
   -9.4018  -32.0371   25.2671 H   0  0  0  0  0  0  0  0  0  0  0  0
  -10.4963  -28.8711   23.6634 H   0  0  0  0  0  0  0  0  0  0  0  0
   -8.7074  -28.6473   25.7686 H   0  0  0  0  0  0  0  0  0  0  0  0
  -10.1768  -29.5893   26.1831 H   0  0  0  0  0  0  0  0  0  0  0  0
  -11.8894  -27.1401   24.3731 H   0  0  0  0  0  0  0  0  0  0  0  0
  -13.0347  -25.1255   25.1540 H   0  0  0  0  0  0  0  0  0  0  0  0
  -12.7177  -23.0179   26.9779 H   0  0  0  0  0  0  0  0  0  0  0  0
  -11.7204  -22.7221   29.2812 H   0  0  0  0  0  0  0  0  0  0  0  0
  -10.0553  -24.8506   29.6745 H   0  0  0  0  0  0  0  0  0  0  0  0
   -9.2988  -26.9196   27.8106 H   0  0  0  0  0  0  0  0  0  0  0  0
  -12.4320  -31.5713   21.5751 H   0  0  0  0  0  0  0  0  0  0  0  0
  1  2  2  0
  2  3  1  0
  3  4  2  0
  4  5  1  0
  5  6  1  0
  6  7  2  0
  7  8  1  0
  8  9  1  0
  9 10  1  0
 10 11  1  0
 11 12  1  0
 12 13  2  0
 13 14  1  0
 14 15  2  0
 15 16  1  0
 16 17  1  0
 17 18  2  0
 18 19  1  0
 19 20  2  0
  9 21  2  0
  5 22  2  0
 22  1  1  0
 21  6  1  0
 20 12  1  0
 19 15  1  0
  1 23  1  0
  2 24  1  0
  4 25  1  0
  8 26  1  0
 10 27  1  0
 11 28  1  0
 11 29  1  0
 13 30  1  0
 14 31  1  0
 16 32  1  0
 17 33  1  0
 18 34  1  0
 20 35  1  0
 22 36  1  0
M  END
>  <Energy>  (686) 
85.623620390161918

>  <compound_id>  (686) 
5658

>  <target_id>  (686) 
1

>  <reference_id>  (686) 
39

>  <inspiration_ids>  (686) 
[48, 39]

>  <energy_score>  (686) 
27.49005303781172

>  <distance_score>  (686) 
9.261010096988628

>  <path>  (686) 
/opt/xchem-fragalysis-2/maxwin/BulkDock/SCRATCH/511018/C5658-P39/C5658-P39.minimised.mol

>  <scratch_subdir>  (686) 
/opt/xchem-fragalysis-2/maxwin/BulkDock/SCRATCH/511018/C5658-P39

>  <fragmenstein_runtime>  (686) 
7.182095289230347

>  <fragmenstein_outcome>  (686) 
too moved

>  <fragmenstein_mode>  (686) 
expansion

>  <fragmenstein_error>  (686) 


$$$$
C5660-P45
     RDKit          3D

 39 42  0  0  0  0  0  0  0  0999 V2000
   -4.9207  -20.2139   32.0561 O   0  0  0  0  0  0  0  0  0  0  0  0
   -5.2317  -20.1527   30.8203 C   0  0  0  0  0  0  0  0  0  0  0  0
   -6.1657  -18.2424   30.0558 C   0  0  0  0  0  0  0  0  0  0  0  0
   -5.8279  -16.2953   30.7228 C   0  0  0  0  0  0  0  0  0  0  0  0
   -6.5129  -14.4670   30.9564 C   0  0  0  0  0  0  0  0  0  0  0  0
   -7.7115  -14.2108   31.8808 C   0  0  0  0  0  0  0  0  0  0  0  0
   -8.6369  -13.1479   31.8053 C   0  0  0  0  0  0  0  0  0  0  0  0
   -8.2357  -12.0702   31.0455 C   0  0  0  0  0  0  0  0  0  0  0  0
   -8.7383  -10.7851   30.9492 N   0  0  0  0  0  0  0  0  0  0  0  0
   -7.6809   -9.9703   31.2608 C   0  0  0  0  0  0  0  0  0  0  0  0
   -6.6176  -10.8461   31.2967 C   0  0  0  0  0  0  0  0  0  0  0  0
   -6.9452  -12.0130   30.5320 C   0  0  0  0  0  0  0  0  0  0  0  0
   -6.3081  -13.2938   30.1901 C   0  0  0  0  0  0  0  0  0  0  0  0
   -5.1608  -21.6553   29.2407 N   0  0  0  0  0  0  0  0  0  0  0  0
   -4.7799  -23.3991   29.2305 C   0  0  0  0  0  0  0  0  0  0  0  0
   -6.2851  -24.0728   29.1224 C   0  0  0  0  0  0  0  0  0  0  0  0
   -6.8434  -24.9479   28.2299 C   0  0  0  0  0  0  0  0  0  0  0  0
   -6.4614  -24.6010   26.9322 C   0  0  0  0  0  0  0  0  0  0  0  0
   -7.3982  -23.9306   26.3185 N   0  0  0  0  0  0  0  0  0  0  0  0
   -7.0973  -22.7504   26.8871 C   0  0  0  0  0  0  0  0  0  0  0  0
   -5.7639  -22.5943   26.6736 C   0  0  0  0  0  0  0  0  0  0  0  0
   -4.8095  -20.9108   25.9029 Cl  0  0  0  0  0  0  0  0  0  0  0  0
   -5.2623  -23.8520   26.9529 N   0  0  0  0  0  0  0  0  0  0  0  0
   -4.3969  -24.0129   28.0535 C   0  0  0  0  0  0  0  0  0  0  0  0
   -7.1511  -18.3316   30.3799 H   0  0  0  0  0  0  0  0  0  0  0  0
   -5.9243  -17.8643   29.0633 H   0  0  0  0  0  0  0  0  0  0  0  0
   -5.7510  -16.4587   31.8253 H   0  0  0  0  0  0  0  0  0  0  0  0
   -4.9724  -16.0451   30.1423 H   0  0  0  0  0  0  0  0  0  0  0  0
   -7.9864  -14.9715   32.6261 H   0  0  0  0  0  0  0  0  0  0  0  0
   -9.5260  -13.1253   32.4236 H   0  0  0  0  0  0  0  0  0  0  0  0
   -9.6977  -10.5343   31.1348 H   0  0  0  0  0  0  0  0  0  0  0  0
   -7.8173   -8.9611   31.6255 H   0  0  0  0  0  0  0  0  0  0  0  0
   -5.7237  -10.6388   31.8520 H   0  0  0  0  0  0  0  0  0  0  0  0
   -6.5707  -13.4943   29.1466 H   0  0  0  0  0  0  0  0  0  0  0  0
   -5.4054  -21.2771   28.2962 H   0  0  0  0  0  0  0  0  0  0  0  0
   -7.0489  -23.3105   29.2313 H   0  0  0  0  0  0  0  0  0  0  0  0
   -7.9051  -25.1894   28.3261 H   0  0  0  0  0  0  0  0  0  0  0  0
   -7.7388  -21.9946   27.2928 H   0  0  0  0  0  0  0  0  0  0  0  0
   -4.0605  -25.0446   28.0684 H   0  0  0  0  0  0  0  0  0  0  0  0
  1  2  2  0
  2  3  1  0
  3  4  1  0
  4  5  1  0
  5  6  2  0
  6  7  1  0
  7  8  2  0
  8  9  1  0
  9 10  1  0
 10 11  2  0
 11 12  1  0
 12 13  2  0
  2 14  1  0
 14 15  1  0
 15 16  1  0
 16 17  2  0
 17 18  1  0
 18 19  2  0
 19 20  1  0
 20 21  2  0
 21 22  1  0
 21 23  1  0
 23 24  1  0
 13  5  1  0
 24 15  2  0
 12  8  1  0
 23 18  1  0
  3 25  1  0
  3 26  1  0
  4 27  1  0
  4 28  1  0
  6 29  1  0
  7 30  1  0
  9 31  1  0
 10 32  1  0
 11 33  1  0
 13 34  1  0
 14 35  1  0
 16 36  1  0
 17 37  1  0
 20 38  1  0
 24 39  1  0
M  END
>  <Energy>  (687) 
1017.1753452171251

>  <compound_id>  (687) 
5660

>  <target_id>  (687) 
1

>  <reference_id>  (687) 
45

>  <inspiration_ids>  (687) 
[45, 40]

>  <energy_score>  (687) 
967.9646942486163

>  <distance_score>  (687) 
8.805091587387757

>  <path>  (687) 
/opt/xchem-fragalysis-2/maxwin/BulkDock/SCRATCH/511018/C5660-P45/C5660-P45.minimised.mol

>  <scratch_subdir>  (687) 
/opt/xchem-fragalysis-2/maxwin/BulkDock/SCRATCH/511018/C5660-P45

>  <fragmenstein_runtime>  (687) 
13.938453674316406

>  <fragmenstein_outcome>  (687) 
too moved

>  <fragmenstein_mode>  (687) 
expansion

>  <fragmenstein_error>  (687) 


$$$$
C5660-P40
     RDKit          3D

 39 42  0  0  0  0  0  0  0  0999 V2000
  -10.1652  -17.5225   25.6692 O   0  0  0  0  0  0  0  0  0  0  0  0
   -9.5373  -17.1369   26.6452 C   0  0  0  0  0  0  0  0  0  0  0  0
   -9.9640  -15.6084   26.9726 C   0  0  0  0  0  0  0  0  0  0  0  0
   -8.7528  -14.5304   26.9549 C   0  0  0  0  0  0  0  0  0  0  0  0
   -8.6413  -12.9971   27.0109 C   0  0  0  0  0  0  0  0  0  0  0  0
   -8.7745  -12.2843   28.2131 C   0  0  0  0  0  0  0  0  0  0  0  0
   -8.3588  -10.9387   28.3461 C   0  0  0  0  0  0  0  0  0  0  0  0
   -7.7947  -10.3039   27.2315 C   0  0  0  0  0  0  0  0  0  0  0  0
   -7.2775   -9.0333   27.0820 N   0  0  0  0  0  0  0  0  0  0  0  0
   -6.8185   -8.8522   25.8025 C   0  0  0  0  0  0  0  0  0  0  0  0
   -6.9916  -10.0414   25.1297 C   0  0  0  0  0  0  0  0  0  0  0  0
   -7.6258  -10.9610   26.0174 C   0  0  0  0  0  0  0  0  0  0  0  0
   -8.0590  -12.3088   25.9144 C   0  0  0  0  0  0  0  0  0  0  0  0
   -8.1649  -18.0696   27.5042 N   0  0  0  0  0  0  0  0  0  0  0  0
   -7.2534  -19.7469   27.0042 C   0  0  0  0  0  0  0  0  0  0  0  0
   -8.0958  -21.0941   27.5259 C   0  0  0  0  0  0  0  0  0  0  0  0
   -7.8670  -22.3934   27.2144 C   0  0  0  0  0  0  0  0  0  0  0  0
   -6.6590  -22.4346   26.7202 C   0  0  0  0  0  0  0  0  0  0  0  0
   -5.7234  -22.7861   25.9818 N   0  0  0  0  0  0  0  0  0  0  0  0
   -4.7771  -22.5931   27.1445 C   0  0  0  0  0  0  0  0  0  0  0  0
   -5.4174  -22.2767   28.3141 C   0  0  0  0  0  0  0  0  0  0  0  0
   -6.7230  -23.1364   28.9306 Cl  0  0  0  0  0  0  0  0  0  0  0  0
   -5.8595  -21.4889   27.3227 N   0  0  0  0  0  0  0  0  0  0  0  0
   -5.9474  -19.9388   26.9085 C   0  0  0  0  0  0  0  0  0  0  0  0
  -10.9434  -15.3854   27.4237 H   0  0  0  0  0  0  0  0  0  0  0  0
  -10.3485  -15.3357   25.9640 H   0  0  0  0  0  0  0  0  0  0  0  0
   -8.1396  -14.7998   27.8125 H   0  0  0  0  0  0  0  0  0  0  0  0
   -8.2225  -14.8087   26.0345 H   0  0  0  0  0  0  0  0  0  0  0  0
   -9.1535  -12.7912   29.0984 H   0  0  0  0  0  0  0  0  0  0  0  0
   -8.4457  -10.4265   29.2987 H   0  0  0  0  0  0  0  0  0  0  0  0
   -7.1975   -8.3711   27.8392 H   0  0  0  0  0  0  0  0  0  0  0  0
   -6.3928   -7.9129   25.4884 H   0  0  0  0  0  0  0  0  0  0  0  0
   -6.7076  -10.2340   24.1039 H   0  0  0  0  0  0  0  0  0  0  0  0
   -7.8826  -12.8321   24.9772 H   0  0  0  0  0  0  0  0  0  0  0  0
   -7.7633  -17.4937   28.2237 H   0  0  0  0  0  0  0  0  0  0  0  0
   -9.1760  -20.7954   27.6899 H   0  0  0  0  0  0  0  0  0  0  0  0
   -8.5337  -23.2614   27.3368 H   0  0  0  0  0  0  0  0  0  0  0  0
   -4.0448  -23.4090   27.3563 H   0  0  0  0  0  0  0  0  0  0  0  0
   -5.4783  -19.6945   25.9564 H   0  0  0  0  0  0  0  0  0  0  0  0
  1  2  2  0
  2  3  1  0
  3  4  1  0
  4  5  1  0
  5  6  2  0
  6  7  1  0
  7  8  2  0
  8  9  1  0
  9 10  1  0
 10 11  2  0
 11 12  1  0
 12 13  2  0
  2 14  1  0
 14 15  1  0
 15 16  1  0
 16 17  2  0
 17 18  1  0
 18 19  2  0
 19 20  1  0
 20 21  2  0
 21 22  1  0
 21 23  1  0
 23 24  1  0
 13  5  1  0
 24 15  2  0
 12  8  1  0
 23 18  1  0
  3 25  1  0
  3 26  1  0
  4 27  1  0
  4 28  1  0
  6 29  1  0
  7 30  1  0
  9 31  1  0
 10 32  1  0
 11 33  1  0
 13 34  1  0
 14 35  1  0
 16 36  1  0
 17 37  1  0
 20 38  1  0
 24 39  1  0
M  END
>  <Energy>  (688) 
648.88151746660981

>  <compound_id>  (688) 
5660

>  <target_id>  (688) 
1

>  <reference_id>  (688) 
40

>  <inspiration_ids>  (688) 
[45, 40]

>  <energy_score>  (688) 
599.6708664981024

>  <distance_score>  (688) 
9.262719958356596

>  <path>  (688) 
/opt/xchem-fragalysis-2/maxwin/BulkDock/SCRATCH/511018/C5660-P40/C5660-P40.minimised.mol

>  <scratch_subdir>  (688) 
/opt/xchem-fragalysis-2/maxwin/BulkDock/SCRATCH/511018/C5660-P40

>  <fragmenstein_runtime>  (688) 
31.136478424072266

>  <fragmenstein_outcome>  (688) 
too moved

>  <fragmenstein_mode>  (688) 
expansion

>  <fragmenstein_error>  (688) 


$$$$
C5663-P45
     RDKit          3D

 43 46  0  0  0  0  0  0  0  0999 V2000
   -5.0213  -24.3187   27.7811 C   0  0  0  0  0  0  0  0  0  0  0  0
   -5.0033  -23.9484   29.2151 C   0  0  0  0  0  0  0  0  0  0  0  0
   -6.0307  -24.5129   30.0182 C   0  0  0  0  0  0  0  0  0  0  0  0
   -6.0661  -24.7030   31.7001 C   0  0  0  0  0  0  0  0  0  0  0  0
   -5.2998  -23.7538   32.4795 C   0  0  0  0  0  0  0  0  0  0  0  0
   -5.4344  -22.5942   33.3706 N   0  0  0  0  0  0  0  0  0  0  0  0
   -4.2565  -21.7405   32.9703 C   0  0  0  0  0  0  0  0  0  0  0  0
   -3.0493  -19.9423   33.3410 C   0  0  0  0  0  0  0  0  0  0  0  0
   -2.0253  -18.2358   34.9175 S   0  0  0  0  0  0  0  0  0  0  0  0
   -4.5775  -18.1144   36.2025 C   0  0  0  0  0  0  0  0  0  0  0  0
   -5.1242  -16.8689   37.6019 C   0  0  0  0  0  0  0  0  0  0  0  0
   -5.4245  -17.4482   38.6243 O   0  0  0  0  0  0  0  0  0  0  0  0
   -5.0186  -15.4036   37.3115 N   0  0  0  0  0  0  0  0  0  0  0  0
   -5.1408  -14.2867   38.1521 C   0  0  0  0  0  0  0  0  0  0  0  0
   -5.7137  -14.2372   39.3981 C   0  0  0  0  0  0  0  0  0  0  0  0
   -5.8545  -12.9998   40.0632 C   0  0  0  0  0  0  0  0  0  0  0  0
   -5.4515  -11.8221   39.4149 C   0  0  0  0  0  0  0  0  0  0  0  0
   -5.6139  -10.5042   39.7557 N   0  0  0  0  0  0  0  0  0  0  0  0
   -5.2769   -9.7059   38.6970 C   0  0  0  0  0  0  0  0  0  0  0  0
   -4.6896  -10.4955   37.7400 C   0  0  0  0  0  0  0  0  0  0  0  0
   -4.8053  -11.8398   38.1928 C   0  0  0  0  0  0  0  0  0  0  0  0
   -4.5743  -13.1019   37.6236 C   0  0  0  0  0  0  0  0  0  0  0  0
   -3.6445  -23.2624   32.8846 C   0  0  0  0  0  0  0  0  0  0  0  0
   -4.2083  -23.4747   31.7058 N   0  0  0  0  0  0  0  0  0  0  0  0
   -4.0381  -23.5552   30.1151 C   0  0  0  0  0  0  0  0  0  0  0  0
   -5.3099  -23.4490   27.1939 H   0  0  0  0  0  0  0  0  0  0  0  0
   -5.7569  -25.0965   27.5459 H   0  0  0  0  0  0  0  0  0  0  0  0
   -4.0648  -24.7423   27.4887 H   0  0  0  0  0  0  0  0  0  0  0  0
   -6.9832  -24.6807   29.4392 H   0  0  0  0  0  0  0  0  0  0  0  0
   -6.9751  -25.1093   32.1852 H   0  0  0  0  0  0  0  0  0  0  0  0
   -1.9825  -20.2099   33.5882 H   0  0  0  0  0  0  0  0  0  0  0  0
   -2.6266  -19.4882   32.4187 H   0  0  0  0  0  0  0  0  0  0  0  0
   -4.9651  -19.1201   36.7024 H   0  0  0  0  0  0  0  0  0  0  0  0
   -5.6126  -18.1095   35.6256 H   0  0  0  0  0  0  0  0  0  0  0  0
   -4.6653  -15.2759   36.3816 H   0  0  0  0  0  0  0  0  0  0  0  0
   -6.0983  -15.1409   39.8649 H   0  0  0  0  0  0  0  0  0  0  0  0
   -6.3460  -12.9656   41.0318 H   0  0  0  0  0  0  0  0  0  0  0  0
   -6.0664  -10.1876   40.6020 H   0  0  0  0  0  0  0  0  0  0  0  0
   -5.5129   -8.6588   38.7488 H   0  0  0  0  0  0  0  0  0  0  0  0
   -4.3215  -10.1631   36.7792 H   0  0  0  0  0  0  0  0  0  0  0  0
   -4.1172  -13.1227   36.6494 H   0  0  0  0  0  0  0  0  0  0  0  0
   -3.5475  -23.9580   33.7372 H   0  0  0  0  0  0  0  0  0  0  0  0
   -3.1640  -23.6937   29.6992 H   0  0  0  0  0  0  0  0  0  0  0  0
  1  2  1  0
  2  3  1  0
  3  4  2  0
  4  5  1  0
  5  6  2  0
  6  7  1  0
  7  8  1  0
  8  9  1  0
  9 10  1  0
 10 11  1  0
 11 12  2  0
 11 13  1  0
 13 14  1  0
 14 15  2  0
 15 16  1  0
 16 17  2  0
 17 18  1  0
 18 19  1  0
 19 20  2  0
 20 21  1  0
 21 22  2  0
  7 23  2  0
 23 24  1  0
 24 25  1  0
 25  2  2  0
 24  5  1  0
 22 14  1  0
 21 17  1  0
  1 26  1  0
  1 27  1  0
  1 28  1  0
  3 29  1  0
  4 30  1  0
  8 31  1  0
  8 32  1  0
 10 33  1  0
 10 34  1  0
 13 35  1  0
 15 36  1  0
 16 37  1  0
 18 38  1  0
 19 39  1  0
 20 40  1  0
 22 41  1  0
 23 42  1  0
 25 43  1  0
M  END
>  <Energy>  (689) 
1132.6853666732925

>  <compound_id>  (689) 
5663

>  <target_id>  (689) 
1

>  <reference_id>  (689) 
45

>  <inspiration_ids>  (689) 
[45, 40]

>  <energy_score>  (689) 
1022.130066075584

>  <distance_score>  (689) 
10.265777928432001

>  <path>  (689) 
/opt/xchem-fragalysis-2/maxwin/BulkDock/SCRATCH/511018/C5663-P45/C5663-P45.minimised.mol

>  <scratch_subdir>  (689) 
/opt/xchem-fragalysis-2/maxwin/BulkDock/SCRATCH/511018/C5663-P45

>  <fragmenstein_runtime>  (689) 
26.706713438034058

>  <fragmenstein_outcome>  (689) 
too moved

>  <fragmenstein_mode>  (689) 
expansion

>  <fragmenstein_error>  (689) 


$$$$
C5663-P40
     RDKit          3D

 43 46  0  0  0  0  0  0  0  0999 V2000
   -4.1340  -23.4896   27.7352 C   0  0  0  0  0  0  0  0  0  0  0  0
   -5.3539  -22.2547   26.9597 C   0  0  0  0  0  0  0  0  0  0  0  0
   -6.8316  -22.2812   27.5572 C   0  0  0  0  0  0  0  0  0  0  0  0
   -7.5935  -21.2129   27.4281 C   0  0  0  0  0  0  0  0  0  0  0  0
   -7.1089  -19.7130   26.9437 C   0  0  0  0  0  0  0  0  0  0  0  0
   -7.9248  -18.4478   27.8074 N   0  0  0  0  0  0  0  0  0  0  0  0
   -6.8823  -17.4818   28.2994 C   0  0  0  0  0  0  0  0  0  0  0  0
   -7.9640  -15.9179   27.7720 C   0  0  0  0  0  0  0  0  0  0  0  0
   -7.6671  -13.6934   27.2721 S   0  0  0  0  0  0  0  0  0  0  0  0
   -5.8305  -12.3283   26.9547 C   0  0  0  0  0  0  0  0  0  0  0  0
   -4.6423  -11.8956   28.4507 C   0  0  0  0  0  0  0  0  0  0  0  0
   -5.2873  -11.7258   29.4015 O   0  0  0  0  0  0  0  0  0  0  0  0
   -2.8437  -11.5727   28.4568 N   0  0  0  0  0  0  0  0  0  0  0  0
   -1.7064  -10.8056   29.7739 C   0  0  0  0  0  0  0  0  0  0  0  0
   -1.6742   -9.8375   31.1146 C   0  0  0  0  0  0  0  0  0  0  0  0
   -1.0610   -8.5981   31.5979 C   0  0  0  0  0  0  0  0  0  0  0  0
   -0.4343   -7.8858   30.6212 C   0  0  0  0  0  0  0  0  0  0  0  0
    0.0627   -6.6080   30.6276 N   0  0  0  0  0  0  0  0  0  0  0  0
    0.8241   -6.4297   29.5116 C   0  0  0  0  0  0  0  0  0  0  0  0
    0.7630   -7.6087   28.8020 C   0  0  0  0  0  0  0  0  0  0  0  0
   -0.1854   -8.4873   29.3999 C   0  0  0  0  0  0  0  0  0  0  0  0
   -0.6949   -9.9220   29.1773 C   0  0  0  0  0  0  0  0  0  0  0  0
   -5.6161  -18.2827   27.7094 C   0  0  0  0  0  0  0  0  0  0  0  0
   -5.8453  -19.5216   26.5819 N   0  0  0  0  0  0  0  0  0  0  0  0
   -5.0498  -21.0620   26.2716 C   0  0  0  0  0  0  0  0  0  0  0  0
   -4.4523  -23.5984   28.7932 H   0  0  0  0  0  0  0  0  0  0  0  0
   -4.1818  -24.4568   27.1662 H   0  0  0  0  0  0  0  0  0  0  0  0
   -3.0739  -23.5458   27.7016 H   0  0  0  0  0  0  0  0  0  0  0  0
   -7.3380  -23.0281   28.1207 H   0  0  0  0  0  0  0  0  0  0  0  0
   -8.5839  -21.1094   27.6788 H   0  0  0  0  0  0  0  0  0  0  0  0
   -8.0586  -15.9439   26.6506 H   0  0  0  0  0  0  0  0  0  0  0  0
   -8.9313  -16.3682   27.5241 H   0  0  0  0  0  0  0  0  0  0  0  0
   -6.2565  -11.3535   27.0421 H   0  0  0  0  0  0  0  0  0  0  0  0
   -5.8613  -11.9441   25.9024 H   0  0  0  0  0  0  0  0  0  0  0  0
   -2.4830  -11.6985   27.5189 H   0  0  0  0  0  0  0  0  0  0  0  0
   -2.6074   -9.6820   31.6772 H   0  0  0  0  0  0  0  0  0  0  0  0
   -1.3414   -8.1725   32.5586 H   0  0  0  0  0  0  0  0  0  0  0  0
   -0.0251   -5.9532   31.3958 H   0  0  0  0  0  0  0  0  0  0  0  0
    1.3893   -5.5187   29.3566 H   0  0  0  0  0  0  0  0  0  0  0  0
    1.3801   -7.7845   27.9423 H   0  0  0  0  0  0  0  0  0  0  0  0
    0.1769  -10.4455   29.4602 H   0  0  0  0  0  0  0  0  0  0  0  0
   -4.5823  -17.9532   27.7631 H   0  0  0  0  0  0  0  0  0  0  0  0
   -5.5559  -21.0072   27.2154 H   0  0  0  0  0  0  0  0  0  0  0  0
  1  2  1  0
  2  3  1  0
  3  4  2  0
  4  5  1  0
  5  6  2  0
  6  7  1  0
  7  8  1  0
  8  9  1  0
  9 10  1  0
 10 11  1  0
 11 12  2  0
 11 13  1  0
 13 14  1  0
 14 15  2  0
 15 16  1  0
 16 17  2  0
 17 18  1  0
 18 19  1  0
 19 20  2  0
 20 21  1  0
 21 22  2  0
  7 23  2  0
 23 24  1  0
 24 25  1  0
 25  2  2  0
 24  5  1  0
 22 14  1  0
 21 17  1  0
  1 26  1  0
  1 27  1  0
  1 28  1  0
  3 29  1  0
  4 30  1  0
  8 31  1  0
  8 32  1  0
 10 33  1  0
 10 34  1  0
 13 35  1  0
 15 36  1  0
 16 37  1  0
 18 38  1  0
 19 39  1  0
 20 40  1  0
 22 41  1  0
 23 42  1  0
 25 43  1  0
M  END
>  <Energy>  (690) 
1146.3513694316894

>  <compound_id>  (690) 
5663

>  <target_id>  (690) 
1

>  <reference_id>  (690) 
40

>  <inspiration_ids>  (690) 
[45, 40]

>  <energy_score>  (690) 
1035.7960688339851

>  <distance_score>  (690) 
5.745134631797485

>  <path>  (690) 
/opt/xchem-fragalysis-2/maxwin/BulkDock/SCRATCH/511018/C5663-P40/C5663-P40.minimised.mol

>  <scratch_subdir>  (690) 
/opt/xchem-fragalysis-2/maxwin/BulkDock/SCRATCH/511018/C5663-P40

>  <fragmenstein_runtime>  (690) 
18.18834924697876

>  <fragmenstein_outcome>  (690) 
too moved

>  <fragmenstein_mode>  (690) 
expansion

>  <fragmenstein_error>  (690) 


$$$$
C5670-P45
     RDKit          3D

 37 40  0  0  0  0  0  0  0  0999 V2000
   -5.5211  -19.9857   26.6095 Br  0  0  0  0  0  0  0  0  0  0  0  0
   -7.4983  -20.5756   27.6610 C   0  0  0  0  0  0  0  0  0  0  0  0
   -8.2579  -18.9610   28.1989 C   0  0  0  0  0  0  0  0  0  0  0  0
   -7.4711  -17.0894   28.1960 C   0  0  0  0  0  0  0  0  0  0  0  0
   -6.1138  -15.8818   29.1327 N   0  0  0  0  0  0  0  0  0  0  0  0
   -6.0929  -14.1163   29.9454 C   0  0  0  0  0  0  0  0  0  0  0  0
   -5.0928  -12.5417   30.4940 C   0  0  0  0  0  0  0  0  0  0  0  0
   -5.7777  -11.3877   31.5083 C   0  0  0  0  0  0  0  0  0  0  0  0
   -5.2531  -10.0387   32.2199 C   0  0  0  0  0  0  0  0  0  0  0  0
   -3.8050   -9.7437   32.0169 C   0  0  0  0  0  0  0  0  0  0  0  0
   -2.9009   -8.8773   32.5724 N   0  0  0  0  0  0  0  0  0  0  0  0
   -1.7294   -8.8986   31.8835 C   0  0  0  0  0  0  0  0  0  0  0  0
   -1.7323  -10.0171   31.0491 C   0  0  0  0  0  0  0  0  0  0  0  0
   -3.0222  -10.6599   31.1022 C   0  0  0  0  0  0  0  0  0  0  0  0
   -3.7508  -12.0193   30.2731 C   0  0  0  0  0  0  0  0  0  0  0  0
   -9.7821  -19.6157   28.2043 N   0  0  0  0  0  0  0  0  0  0  0  0
   -9.8083  -21.0272   28.0229 C   0  0  0  0  0  0  0  0  0  0  0  0
  -10.8034  -22.0562   28.2117 C   0  0  0  0  0  0  0  0  0  0  0  0
  -10.4626  -23.3731   28.1969 C   0  0  0  0  0  0  0  0  0  0  0  0
   -9.0951  -23.9166   28.0257 C   0  0  0  0  0  0  0  0  0  0  0  0
   -8.0307  -23.1012   27.8548 C   0  0  0  0  0  0  0  0  0  0  0  0
   -8.2634  -21.7041   27.8019 N   0  0  0  0  0  0  0  0  0  0  0  0
   -6.5570  -17.6012   28.2104 H   0  0  0  0  0  0  0  0  0  0  0  0
   -7.9402  -16.5271   27.3882 H   0  0  0  0  0  0  0  0  0  0  0  0
   -5.6718  -16.4775   29.8370 H   0  0  0  0  0  0  0  0  0  0  0  0
   -6.6255  -14.2640   30.8816 H   0  0  0  0  0  0  0  0  0  0  0  0
   -6.6880  -13.6986   29.1314 H   0  0  0  0  0  0  0  0  0  0  0  0
   -6.7751  -11.5976   31.9225 H   0  0  0  0  0  0  0  0  0  0  0  0
   -5.8885   -9.4720   32.8881 H   0  0  0  0  0  0  0  0  0  0  0  0
   -3.0484   -8.3497   33.4152 H   0  0  0  0  0  0  0  0  0  0  0  0
   -0.9666   -8.1498   32.0690 H   0  0  0  0  0  0  0  0  0  0  0  0
   -0.9838  -10.2892   30.3134 H   0  0  0  0  0  0  0  0  0  0  0  0
   -3.0546  -12.4669   29.5892 H   0  0  0  0  0  0  0  0  0  0  0  0
  -11.8311  -21.7423   28.3594 H   0  0  0  0  0  0  0  0  0  0  0  0
  -11.2451  -24.1182   28.3330 H   0  0  0  0  0  0  0  0  0  0  0  0
   -8.9765  -24.9962   28.0513 H   0  0  0  0  0  0  0  0  0  0  0  0
   -7.0094  -23.4360   27.7285 H   0  0  0  0  0  0  0  0  0  0  0  0
  1  2  1  0
  2  3  2  0
  3  4  1  0
  4  5  1  0
  5  6  1  0
  6  7  1  0
  7  8  2  0
  8  9  1  0
  9 10  2  0
 10 11  1  0
 11 12  1  0
 12 13  2  0
 13 14  1  0
 14 15  2  0
  3 16  1  0
 16 17  2  0
 17 18  1  0
 18 19  2  0
 19 20  1  0
 20 21  2  0
 21 22  1  0
 22  2  1  0
 15  7  1  0
 22 17  1  0
 14 10  1  0
  4 23  1  0
  4 24  1  0
  5 25  1  0
  6 26  1  0
  6 27  1  0
  8 28  1  0
  9 29  1  0
 11 30  1  0
 12 31  1  0
 13 32  1  0
 15 33  1  0
 18 34  1  0
 19 35  1  0
 20 36  1  0
 21 37  1  0
M  END
>  <Energy>  (691) 
705.67290681564373

>  <compound_id>  (691) 
5670

>  <target_id>  (691) 
1

>  <reference_id>  (691) 
45

>  <inspiration_ids>  (691) 
[45, 40]

>  <energy_score>  (691) 
632.8867556660063

>  <distance_score>  (691) 
7.197107861052198

>  <path>  (691) 
/opt/xchem-fragalysis-2/maxwin/BulkDock/SCRATCH/511018/C5670-P45/C5670-P45.minimised.mol

>  <scratch_subdir>  (691) 
/opt/xchem-fragalysis-2/maxwin/BulkDock/SCRATCH/511018/C5670-P45

>  <fragmenstein_runtime>  (691) 
13.559491872787476

>  <fragmenstein_outcome>  (691) 
too moved

>  <fragmenstein_mode>  (691) 
expansion

>  <fragmenstein_error>  (691) 


$$$$
C5670-P40
     RDKit          3D

 37 40  0  0  0  0  0  0  0  0999 V2000
   -3.8462  -23.5648   28.0551 Br  0  0  0  0  0  0  0  0  0  0  0  0
   -2.8576  -22.1753   30.2107 C   0  0  0  0  0  0  0  0  0  0  0  0
   -2.9220  -20.6474   31.3402 C   0  0  0  0  0  0  0  0  0  0  0  0
   -2.2064  -18.7125   32.1867 C   0  0  0  0  0  0  0  0  0  0  0  0
   -1.5952  -16.6303   32.3658 N   0  0  0  0  0  0  0  0  0  0  0  0
   -2.1477  -14.5627   32.0984 C   0  0  0  0  0  0  0  0  0  0  0  0
   -1.5768  -12.3726   31.6404 C   0  0  0  0  0  0  0  0  0  0  0  0
   -1.5009  -10.4408   31.9429 C   0  0  0  0  0  0  0  0  0  0  0  0
   -1.3307   -8.9258   31.9949 C   0  0  0  0  0  0  0  0  0  0  0  0
   -0.8502   -8.5925   30.8296 C   0  0  0  0  0  0  0  0  0  0  0  0
   -0.5878   -7.3326   30.3890 N   0  0  0  0  0  0  0  0  0  0  0  0
    0.2055   -7.4698   29.3247 C   0  0  0  0  0  0  0  0  0  0  0  0
    0.2443   -8.8314   29.1017 C   0  0  0  0  0  0  0  0  0  0  0  0
   -0.5704   -9.6735   29.9582 C   0  0  0  0  0  0  0  0  0  0  0  0
   -0.8104  -11.3731   30.5324 C   0  0  0  0  0  0  0  0  0  0  0  0
   -4.0777  -21.6877   31.3890 N   0  0  0  0  0  0  0  0  0  0  0  0
   -4.5731  -22.3250   29.8329 C   0  0  0  0  0  0  0  0  0  0  0  0
   -5.8752  -22.3592   28.6150 C   0  0  0  0  0  0  0  0  0  0  0  0
   -6.8665  -23.2085   29.0049 C   0  0  0  0  0  0  0  0  0  0  0  0
   -6.3392  -24.4719   30.3678 C   0  0  0  0  0  0  0  0  0  0  0  0
   -5.2997  -24.6786   29.6132 C   0  0  0  0  0  0  0  0  0  0  0  0
   -4.1170  -23.4380   29.4839 N   0  0  0  0  0  0  0  0  0  0  0  0
   -1.1928  -18.8599   31.8404 H   0  0  0  0  0  0  0  0  0  0  0  0
   -1.9785  -19.0973   33.1819 H   0  0  0  0  0  0  0  0  0  0  0  0
   -0.6736  -16.6451   31.8924 H   0  0  0  0  0  0  0  0  0  0  0  0
   -1.3414  -14.6670   32.8950 H   0  0  0  0  0  0  0  0  0  0  0  0
   -2.4896  -14.9374   31.1301 H   0  0  0  0  0  0  0  0  0  0  0  0
   -2.3298  -10.0728   32.6596 H   0  0  0  0  0  0  0  0  0  0  0  0
   -1.6919   -8.2726   32.7789 H   0  0  0  0  0  0  0  0  0  0  0  0
   -0.7536   -6.4830   30.9157 H   0  0  0  0  0  0  0  0  0  0  0  0
    0.7503   -6.6419   28.8882 H   0  0  0  0  0  0  0  0  0  0  0  0
    0.9890   -9.0681   28.4045 H   0  0  0  0  0  0  0  0  0  0  0  0
    0.1783  -11.8348   30.3050 H   0  0  0  0  0  0  0  0  0  0  0  0
   -5.9146  -21.7877   27.6905 H   0  0  0  0  0  0  0  0  0  0  0  0
   -7.7740  -23.2105   28.3780 H   0  0  0  0  0  0  0  0  0  0  0  0
   -7.0033  -25.2926   30.7111 H   0  0  0  0  0  0  0  0  0  0  0  0
   -5.1508  -25.7198   29.6591 H   0  0  0  0  0  0  0  0  0  0  0  0
  1  2  1  0
  2  3  2  0
  3  4  1  0
  4  5  1  0
  5  6  1  0
  6  7  1  0
  7  8  2  0
  8  9  1  0
  9 10  2  0
 10 11  1  0
 11 12  1  0
 12 13  2  0
 13 14  1  0
 14 15  2  0
  3 16  1  0
 16 17  2  0
 17 18  1  0
 18 19  2  0
 19 20  1  0
 20 21  2  0
 21 22  1  0
 22  2  1  0
 15  7  1  0
 22 17  1  0
 14 10  1  0
  4 23  1  0
  4 24  1  0
  5 25  1  0
  6 26  1  0
  6 27  1  0
  8 28  1  0
  9 29  1  0
 11 30  1  0
 12 31  1  0
 13 32  1  0
 15 33  1  0
 18 34  1  0
 19 35  1  0
 20 36  1  0
 21 37  1  0
M  END
>  <Energy>  (692) 
2667.6380659644519

>  <compound_id>  (692) 
5670

>  <target_id>  (692) 
1

>  <reference_id>  (692) 
40

>  <inspiration_ids>  (692) 
[45, 40]

>  <energy_score>  (692) 
2594.8519148148234

>  <distance_score>  (692) 
5.811586084605321

>  <path>  (692) 
/opt/xchem-fragalysis-2/maxwin/BulkDock/SCRATCH/511018/C5670-P40/C5670-P40.minimised.mol

>  <scratch_subdir>  (692) 
/opt/xchem-fragalysis-2/maxwin/BulkDock/SCRATCH/511018/C5670-P40

>  <fragmenstein_runtime>  (692) 
17.339099884033203

>  <fragmenstein_outcome>  (692) 
too moved

>  <fragmenstein_mode>  (692) 
expansion

>  <fragmenstein_error>  (692) 


$$$$
C5671-P45
     RDKit          3D

 42 45  0  0  0  0  0  0  0  0999 V2000
   -4.5735  -16.4882   29.7813 O   0  0  0  0  0  0  0  0  0  0  0  0
   -5.5704  -16.2069   29.2853 C   0  0  0  0  0  0  0  0  0  0  0  0
   -6.3005  -17.8276   28.2598 C   0  0  0  0  0  0  0  0  0  0  0  0
   -5.9729  -19.6502   27.0109 C   0  0  0  0  0  0  0  0  0  0  0  0
   -5.4817  -21.3529   27.2276 C   0  0  0  0  0  0  0  0  0  0  0  0
   -6.2334  -22.6111   27.1229 N   0  0  0  0  0  0  0  0  0  0  0  0
   -5.8781  -23.9656   27.0170 C   0  0  0  0  0  0  0  0  0  0  0  0
   -6.7860  -24.9256   27.2395 C   0  0  0  0  0  0  0  0  0  0  0  0
   -8.0755  -24.5254   27.7381 C   0  0  0  0  0  0  0  0  0  0  0  0
   -8.3469  -23.2250   27.9567 C   0  0  0  0  0  0  0  0  0  0  0  0
   -7.4103  -22.1790   27.5916 C   0  0  0  0  0  0  0  0  0  0  0  0
   -7.3616  -20.8156   27.4997 N   0  0  0  0  0  0  0  0  0  0  0  0
   -6.0346  -14.4383   29.4432 N   0  0  0  0  0  0  0  0  0  0  0  0
   -5.1033  -12.9494   30.1563 C   0  0  0  0  0  0  0  0  0  0  0  0
   -3.3624  -12.0707   29.8973 C   0  0  0  0  0  0  0  0  0  0  0  0
   -2.1989  -10.7329   30.6307 C   0  0  0  0  0  0  0  0  0  0  0  0
   -2.5928   -9.7860   31.7271 C   0  0  0  0  0  0  0  0  0  0  0  0
   -1.9368   -8.5796   32.1478 C   0  0  0  0  0  0  0  0  0  0  0  0
   -1.0668   -7.9970   31.2285 C   0  0  0  0  0  0  0  0  0  0  0  0
   -0.5054   -6.7409   31.1798 N   0  0  0  0  0  0  0  0  0  0  0  0
   -0.2087   -6.4364   29.8756 C   0  0  0  0  0  0  0  0  0  0  0  0
   -0.3513   -7.5970   29.1441 C   0  0  0  0  0  0  0  0  0  0  0  0
   -0.6919   -8.6591   30.0560 C   0  0  0  0  0  0  0  0  0  0  0  0
   -1.0731  -10.0887   29.8626 C   0  0  0  0  0  0  0  0  0  0  0  0
   -7.4527  -17.8124   28.4249 H   0  0  0  0  0  0  0  0  0  0  0  0
   -6.0338  -18.0986   29.3334 H   0  0  0  0  0  0  0  0  0  0  0  0
   -5.1758  -21.7589   28.1857 H   0  0  0  0  0  0  0  0  0  0  0  0
   -4.8717  -24.2481   26.7779 H   0  0  0  0  0  0  0  0  0  0  0  0
   -6.5478  -25.9785   27.1279 H   0  0  0  0  0  0  0  0  0  0  0  0
   -8.8112  -25.2952   27.9480 H   0  0  0  0  0  0  0  0  0  0  0  0
   -9.3395  -22.9445   28.2919 H   0  0  0  0  0  0  0  0  0  0  0  0
   -6.8752  -14.2823   28.8973 H   0  0  0  0  0  0  0  0  0  0  0  0
   -5.5520  -12.5983   31.0668 H   0  0  0  0  0  0  0  0  0  0  0  0
   -4.4679  -13.7503   30.3608 H   0  0  0  0  0  0  0  0  0  0  0  0
   -3.3389  -11.8821   28.8308 H   0  0  0  0  0  0  0  0  0  0  0  0
   -2.7091  -12.9246   29.8927 H   0  0  0  0  0  0  0  0  0  0  0  0
   -3.5785   -9.8731   32.1700 H   0  0  0  0  0  0  0  0  0  0  0  0
   -2.2993   -8.0249   33.0055 H   0  0  0  0  0  0  0  0  0  0  0  0
   -0.4853   -6.0880   31.9516 H   0  0  0  0  0  0  0  0  0  0  0  0
    0.1073   -5.4416   29.5929 H   0  0  0  0  0  0  0  0  0  0  0  0
   -0.1534   -7.6985   28.0863 H   0  0  0  0  0  0  0  0  0  0  0  0
   -0.8225  -10.3979   28.8577 H   0  0  0  0  0  0  0  0  0  0  0  0
  1  2  2  0
  2  3  1  0
  3  4  1  0
  4  5  2  0
  5  6  1  0
  6  7  1  0
  7  8  2  0
  8  9  1  0
  9 10  2  0
 10 11  1  0
 11 12  2  0
  2 13  1  0
 13 14  1  0
 14 15  1  0
 15 16  1  0
 16 17  2  0
 17 18  1  0
 18 19  2  0
 19 20  1  0
 20 21  1  0
 21 22  2  0
 22 23  1  0
 23 24  2  0
 12  4  1  0
 24 16  1  0
 11  6  1  0
 23 19  1  0
  3 25  1  0
  3 26  1  0
  5 27  1  0
  7 28  1  0
  8 29  1  0
  9 30  1  0
 10 31  1  0
 13 32  1  0
 14 33  1  0
 14 34  1  0
 15 35  1  0
 15 36  1  0
 17 37  1  0
 18 38  1  0
 20 39  1  0
 21 40  1  0
 22 41  1  0
 24 42  1  0
M  END
>  <Energy>  (693) 
931.64326987797517

>  <compound_id>  (693) 
5671

>  <target_id>  (693) 
1

>  <reference_id>  (693) 
45

>  <inspiration_ids>  (693) 
[45, 40]

>  <energy_score>  (693) 
852.7908622168909

>  <distance_score>  (693) 
4.7584612891283555

>  <path>  (693) 
/opt/xchem-fragalysis-2/maxwin/BulkDock/SCRATCH/511018/C5671-P45/C5671-P45.minimised.mol

>  <scratch_subdir>  (693) 
/opt/xchem-fragalysis-2/maxwin/BulkDock/SCRATCH/511018/C5671-P45

>  <fragmenstein_runtime>  (693) 
10.949498653411865

>  <fragmenstein_outcome>  (693) 
too moved

>  <fragmenstein_mode>  (693) 
expansion

>  <fragmenstein_error>  (693) 


$$$$
C5671-P40
     RDKit          3D

 42 45  0  0  0  0  0  0  0  0999 V2000
   -2.6082  -15.1583   30.5898 O   0  0  0  0  0  0  0  0  0  0  0  0
   -3.5636  -14.6989   30.0289 C   0  0  0  0  0  0  0  0  0  0  0  0
   -5.2620  -15.9543   29.7457 C   0  0  0  0  0  0  0  0  0  0  0  0
   -6.1496  -17.5361   28.7507 C   0  0  0  0  0  0  0  0  0  0  0  0
   -5.3387  -18.3404   27.7404 C   0  0  0  0  0  0  0  0  0  0  0  0
   -5.8020  -19.4443   26.6357 N   0  0  0  0  0  0  0  0  0  0  0  0
   -5.0488  -20.7617   26.0008 C   0  0  0  0  0  0  0  0  0  0  0  0
   -5.4062  -21.9134   26.8084 C   0  0  0  0  0  0  0  0  0  0  0  0
   -6.6808  -22.0685   27.5261 C   0  0  0  0  0  0  0  0  0  0  0  0
   -7.5506  -21.0870   27.4215 C   0  0  0  0  0  0  0  0  0  0  0  0
   -7.0565  -19.5340   26.9625 C   0  0  0  0  0  0  0  0  0  0  0  0
   -7.5611  -18.1363   27.9756 N   0  0  0  0  0  0  0  0  0  0  0  0
   -3.5168  -12.8336   29.3677 N   0  0  0  0  0  0  0  0  0  0  0  0
   -2.3800  -11.7881   29.3386 C   0  0  0  0  0  0  0  0  0  0  0  0
   -1.1896  -10.5784   30.1659 C   0  0  0  0  0  0  0  0  0  0  0  0
   -0.9426   -9.0551   30.6651 C   0  0  0  0  0  0  0  0  0  0  0  0
   -1.4022   -8.5196   31.8684 C   0  0  0  0  0  0  0  0  0  0  0  0
   -1.0881   -7.2047   32.2729 C   0  0  0  0  0  0  0  0  0  0  0  0
   -0.3410   -6.3946   31.4121 C   0  0  0  0  0  0  0  0  0  0  0  0
    0.0879   -5.0927   31.5399 N   0  0  0  0  0  0  0  0  0  0  0  0
    0.8060   -4.7238   30.4310 C   0  0  0  0  0  0  0  0  0  0  0  0
    0.8500   -5.8009   29.5781 C   0  0  0  0  0  0  0  0  0  0  0  0
    0.1113   -6.8523   30.1841 C   0  0  0  0  0  0  0  0  0  0  0  0
   -0.1934   -8.1770   29.8235 C   0  0  0  0  0  0  0  0  0  0  0  0
   -6.0128  -15.2205   29.4130 H   0  0  0  0  0  0  0  0  0  0  0  0
   -5.5607  -16.0218   30.7852 H   0  0  0  0  0  0  0  0  0  0  0  0
   -4.2355  -18.2176   27.8069 H   0  0  0  0  0  0  0  0  0  0  0  0
   -4.4271  -20.4798   25.1747 H   0  0  0  0  0  0  0  0  0  0  0  0
   -4.7080  -22.6642   27.0674 H   0  0  0  0  0  0  0  0  0  0  0  0
   -7.0979  -22.8733   28.0845 H   0  0  0  0  0  0  0  0  0  0  0  0
   -8.5435  -21.0784   27.6759 H   0  0  0  0  0  0  0  0  0  0  0  0
   -4.4350  -12.5809   29.0031 H   0  0  0  0  0  0  0  0  0  0  0  0
   -2.3732  -11.5375   28.2829 H   0  0  0  0  0  0  0  0  0  0  0  0
   -3.1385  -11.2294   29.7634 H   0  0  0  0  0  0  0  0  0  0  0  0
   -0.6843  -11.2477   30.8328 H   0  0  0  0  0  0  0  0  0  0  0  0
   -0.5718  -10.3615   29.2926 H   0  0  0  0  0  0  0  0  0  0  0  0
   -2.0303   -9.1004   32.5306 H   0  0  0  0  0  0  0  0  0  0  0  0
   -1.4332   -6.8356   33.2354 H   0  0  0  0  0  0  0  0  0  0  0  0
   -0.0975   -4.5015   32.3405 H   0  0  0  0  0  0  0  0  0  0  0  0
    1.2243   -3.7285   30.3515 H   0  0  0  0  0  0  0  0  0  0  0  0
    1.3593   -5.8180   28.6242 H   0  0  0  0  0  0  0  0  0  0  0  0
    0.2051   -8.5196   28.8845 H   0  0  0  0  0  0  0  0  0  0  0  0
  1  2  2  0
  2  3  1  0
  3  4  1  0
  4  5  2  0
  5  6  1  0
  6  7  1  0
  7  8  2  0
  8  9  1  0
  9 10  2  0
 10 11  1  0
 11 12  2  0
  2 13  1  0
 13 14  1  0
 14 15  1  0
 15 16  1  0
 16 17  2  0
 17 18  1  0
 18 19  2  0
 19 20  1  0
 20 21  1  0
 21 22  2  0
 22 23  1  0
 23 24  2  0
 12  4  1  0
 24 16  1  0
 11  6  1  0
 23 19  1  0
  3 25  1  0
  3 26  1  0
  5 27  1  0
  7 28  1  0
  8 29  1  0
  9 30  1  0
 10 31  1  0
 13 32  1  0
 14 33  1  0
 14 34  1  0
 15 35  1  0
 15 36  1  0
 17 37  1  0
 18 38  1  0
 20 39  1  0
 21 40  1  0
 22 41  1  0
 24 42  1  0
M  END
>  <Energy>  (694) 
812.84272288092245

>  <compound_id>  (694) 
5671

>  <target_id>  (694) 
1

>  <reference_id>  (694) 
40

>  <inspiration_ids>  (694) 
[45, 40]

>  <energy_score>  (694) 
733.9903152198497

>  <distance_score>  (694) 
5.374489335521762

>  <path>  (694) 
/opt/xchem-fragalysis-2/maxwin/BulkDock/SCRATCH/511018/C5671-P40/C5671-P40.minimised.mol

>  <scratch_subdir>  (694) 
/opt/xchem-fragalysis-2/maxwin/BulkDock/SCRATCH/511018/C5671-P40

>  <fragmenstein_runtime>  (694) 
21.805388689041138

>  <fragmenstein_outcome>  (694) 
too moved

>  <fragmenstein_mode>  (694) 
expansion

>  <fragmenstein_error>  (694) 


$$$$
C5672-P45
     RDKit          3D

 38 41  0  0  0  0  0  0  0  0999 V2000
   -2.3827  -15.3827   30.8014 O   0  0  0  0  0  0  0  0  0  0  0  0
   -2.4846  -14.7916   29.7640 C   0  0  0  0  0  0  0  0  0  0  0  0
   -2.8113  -15.6011   28.1640 N   0  0  0  0  0  0  0  0  0  0  0  0
   -3.2522  -17.5301   27.6841 C   0  0  0  0  0  0  0  0  0  0  0  0
   -5.0156  -18.7553   27.4463 C   0  0  0  0  0  0  0  0  0  0  0  0
   -5.1525  -20.0661   26.0821 C   0  0  0  0  0  0  0  0  0  0  0  0
   -5.3233  -21.8561   26.5106 N   0  0  0  0  0  0  0  0  0  0  0  0
   -5.9338  -23.2174   25.8230 C   0  0  0  0  0  0  0  0  0  0  0  0
   -6.4014  -24.2321   26.5586 C   0  0  0  0  0  0  0  0  0  0  0  0
   -5.9511  -24.1773   27.8869 C   0  0  0  0  0  0  0  0  0  0  0  0
   -5.5950  -23.0026   28.4071 C   0  0  0  0  0  0  0  0  0  0  0  0
   -5.7791  -21.7779   27.7215 C   0  0  0  0  0  0  0  0  0  0  0  0
   -5.6782  -20.4677   27.3500 N   0  0  0  0  0  0  0  0  0  0  0  0
   -2.4980  -12.8995   29.4026 N   0  0  0  0  0  0  0  0  0  0  0  0
   -2.2149  -11.4169   30.4746 C   0  0  0  0  0  0  0  0  0  0  0  0
   -2.8043  -10.3790   31.3717 C   0  0  0  0  0  0  0  0  0  0  0  0
   -2.3150   -9.1130   32.0529 C   0  0  0  0  0  0  0  0  0  0  0  0
   -1.3267   -8.3803   31.4132 C   0  0  0  0  0  0  0  0  0  0  0  0
   -0.8373   -7.1094   31.5626 N   0  0  0  0  0  0  0  0  0  0  0  0
   -0.3711   -6.6807   30.3444 C   0  0  0  0  0  0  0  0  0  0  0  0
   -0.4151   -7.7540   29.4771 C   0  0  0  0  0  0  0  0  0  0  0  0
   -0.7996   -8.9094   30.2299 C   0  0  0  0  0  0  0  0  0  0  0  0
   -1.1763  -10.3633   29.8890 C   0  0  0  0  0  0  0  0  0  0  0  0
   -2.7543  -14.9111   27.4297 H   0  0  0  0  0  0  0  0  0  0  0  0
   -3.0346  -17.1751   26.6684 H   0  0  0  0  0  0  0  0  0  0  0  0
   -2.3310  -18.0860   27.4720 H   0  0  0  0  0  0  0  0  0  0  0  0
   -4.6005  -20.1403   25.1408 H   0  0  0  0  0  0  0  0  0  0  0  0
   -5.8226  -23.3384   24.7542 H   0  0  0  0  0  0  0  0  0  0  0  0
   -6.7748  -25.1734   26.1887 H   0  0  0  0  0  0  0  0  0  0  0  0
   -5.4424  -25.0684   28.2165 H   0  0  0  0  0  0  0  0  0  0  0  0
   -4.7363  -23.1640   29.0299 H   0  0  0  0  0  0  0  0  0  0  0  0
   -2.6727  -12.7122   28.4835 H   0  0  0  0  0  0  0  0  0  0  0  0
   -3.8134  -10.5291   31.7278 H   0  0  0  0  0  0  0  0  0  0  0  0
   -2.9151   -8.6846   32.8484 H   0  0  0  0  0  0  0  0  0  0  0  0
   -0.9623   -6.5228   32.3777 H   0  0  0  0  0  0  0  0  0  0  0  0
   -0.0468   -5.6586   30.2028 H   0  0  0  0  0  0  0  0  0  0  0  0
   -0.1297   -7.7288   28.4344 H   0  0  0  0  0  0  0  0  0  0  0  0
   -0.8073  -10.4845   28.8720 H   0  0  0  0  0  0  0  0  0  0  0  0
  1  2  2  0
  2  3  1  0
  3  4  1  0
  4  5  1  0
  5  6  2  0
  6  7  1  0
  7  8  1  0
  8  9  2  0
  9 10  1  0
 10 11  2  0
 11 12  1  0
 12 13  2  0
  2 14  1  0
 14 15  1  0
 15 16  2  0
 16 17  1  0
 17 18  2  0
 18 19  1  0
 19 20  1  0
 20 21  2  0
 21 22  1  0
 22 23  2  0
 13  5  1  0
 23 15  1  0
 12  7  1  0
 22 18  1  0
  3 24  1  0
  4 25  1  0
  4 26  1  0
  6 27  1  0
  8 28  1  0
  9 29  1  0
 10 30  1  0
 11 31  1  0
 14 32  1  0
 16 33  1  0
 17 34  1  0
 19 35  1  0
 20 36  1  0
 21 37  1  0
 23 38  1  0
M  END
>  <Energy>  (695) 
1047.7908715123824

>  <compound_id>  (695) 
5672

>  <target_id>  (695) 
1

>  <reference_id>  (695) 
45

>  <inspiration_ids>  (695) 
[45, 40]

>  <energy_score>  (695) 
1037.1157832207305

>  <distance_score>  (695) 
5.464758115607429

>  <path>  (695) 
/opt/xchem-fragalysis-2/maxwin/BulkDock/SCRATCH/511018/C5672-P45/C5672-P45.minimised.mol

>  <scratch_subdir>  (695) 
/opt/xchem-fragalysis-2/maxwin/BulkDock/SCRATCH/511018/C5672-P45

>  <fragmenstein_runtime>  (695) 
11.94432282447815

>  <fragmenstein_outcome>  (695) 
too moved

>  <fragmenstein_mode>  (695) 
expansion

>  <fragmenstein_error>  (695) 


$$$$
C5672-P40
     RDKit          3D

 38 41  0  0  0  0  0  0  0  0999 V2000
   -1.6643  -14.4376   32.3727 O   0  0  0  0  0  0  0  0  0  0  0  0
   -2.4452  -14.3794   31.5323 C   0  0  0  0  0  0  0  0  0  0  0  0
   -3.3199  -15.9957   31.4011 N   0  0  0  0  0  0  0  0  0  0  0  0
   -3.0098  -17.8274   32.3360 C   0  0  0  0  0  0  0  0  0  0  0  0
   -3.1041  -19.8847   32.4213 C   0  0  0  0  0  0  0  0  0  0  0  0
   -2.9886  -20.8536   31.3597 C   0  0  0  0  0  0  0  0  0  0  0  0
   -3.8593  -21.9566   31.2578 N   0  0  0  0  0  0  0  0  0  0  0  0
   -4.3569  -22.7964   29.6818 C   0  0  0  0  0  0  0  0  0  0  0  0
   -4.9500  -24.0598   29.6698 C   0  0  0  0  0  0  0  0  0  0  0  0
   -5.5732  -24.2233   31.5076 C   0  0  0  0  0  0  0  0  0  0  0  0
   -5.1779  -23.4666   32.6938 C   0  0  0  0  0  0  0  0  0  0  0  0
   -4.3513  -22.1621   32.6070 C   0  0  0  0  0  0  0  0  0  0  0  0
   -4.3447  -20.7922   33.1287 N   0  0  0  0  0  0  0  0  0  0  0  0
   -2.3214  -12.5569   30.4369 N   0  0  0  0  0  0  0  0  0  0  0  0
   -1.1431  -11.0237   30.6024 C   0  0  0  0  0  0  0  0  0  0  0  0
   -1.4077   -9.8288   31.6015 C   0  0  0  0  0  0  0  0  0  0  0  0
   -1.0598   -8.4342   31.8024 C   0  0  0  0  0  0  0  0  0  0  0  0
   -0.3935   -7.8705   30.7722 C   0  0  0  0  0  0  0  0  0  0  0  0
    0.0728   -6.5933   30.6111 N   0  0  0  0  0  0  0  0  0  0  0  0
    0.7399   -6.5208   29.4288 C   0  0  0  0  0  0  0  0  0  0  0  0
    0.6151   -7.7568   28.8333 C   0  0  0  0  0  0  0  0  0  0  0  0
   -0.1574   -8.6330   29.6436 C   0  0  0  0  0  0  0  0  0  0  0  0
   -0.6838  -10.0750   29.5810 C   0  0  0  0  0  0  0  0  0  0  0  0
   -4.0581  -15.8819   30.7149 H   0  0  0  0  0  0  0  0  0  0  0  0
   -2.0316  -18.2637   31.9300 H   0  0  0  0  0  0  0  0  0  0  0  0
   -2.0949  -17.6043   32.9655 H   0  0  0  0  0  0  0  0  0  0  0  0
   -2.6372  -20.8455   30.3656 H   0  0  0  0  0  0  0  0  0  0  0  0
   -4.6689  -22.3474   28.7679 H   0  0  0  0  0  0  0  0  0  0  0  0
   -5.2138  -24.8447   29.0383 H   0  0  0  0  0  0  0  0  0  0  0  0
   -6.2379  -25.0582   31.3215 H   0  0  0  0  0  0  0  0  0  0  0  0
   -5.6043  -23.6487   33.6685 H   0  0  0  0  0  0  0  0  0  0  0  0
   -3.0101  -12.5940   29.6025 H   0  0  0  0  0  0  0  0  0  0  0  0
   -2.1774   -9.8761   32.3598 H   0  0  0  0  0  0  0  0  0  0  0  0
   -1.3918   -7.8921   32.6826 H   0  0  0  0  0  0  0  0  0  0  0  0
    0.0008   -5.8553   31.3016 H   0  0  0  0  0  0  0  0  0  0  0  0
    1.2646   -5.6211   29.1309 H   0  0  0  0  0  0  0  0  0  0  0  0
    1.1553   -7.9998   27.9444 H   0  0  0  0  0  0  0  0  0  0  0  0
   -0.7748  -10.3140   28.5474 H   0  0  0  0  0  0  0  0  0  0  0  0
  1  2  2  0
  2  3  1  0
  3  4  1  0
  4  5  1  0
  5  6  2  0
  6  7  1  0
  7  8  1  0
  8  9  2  0
  9 10  1  0
 10 11  2  0
 11 12  1  0
 12 13  2  0
  2 14  1  0
 14 15  1  0
 15 16  2  0
 16 17  1  0
 17 18  2  0
 18 19  1  0
 19 20  1  0
 20 21  2  0
 21 22  1  0
 22 23  2  0
 13  5  1  0
 23 15  1  0
 12  7  1  0
 22 18  1  0
  3 24  1  0
  4 25  1  0
  4 26  1  0
  6 27  1  0
  8 28  1  0
  9 29  1  0
 10 30  1  0
 11 31  1  0
 14 32  1  0
 16 33  1  0
 17 34  1  0
 19 35  1  0
 20 36  1  0
 21 37  1  0
 23 38  1  0
M  END
>  <Energy>  (696) 
1047.2764224739085

>  <compound_id>  (696) 
5672

>  <target_id>  (696) 
1

>  <reference_id>  (696) 
40

>  <inspiration_ids>  (696) 
[45, 40]

>  <energy_score>  (696) 
1036.6013341822613

>  <distance_score>  (696) 
5.851552452477293

>  <path>  (696) 
/opt/xchem-fragalysis-2/maxwin/BulkDock/SCRATCH/511018/C5672-P40/C5672-P40.minimised.mol

>  <scratch_subdir>  (696) 
/opt/xchem-fragalysis-2/maxwin/BulkDock/SCRATCH/511018/C5672-P40

>  <fragmenstein_runtime>  (696) 
12.384117364883423

>  <fragmenstein_outcome>  (696) 
too moved

>  <fragmenstein_mode>  (696) 
expansion

>  <fragmenstein_error>  (696) 


$$$$
C5673-P45
     RDKit          3D

 41 44  0  0  0  0  0  0  0  0999 V2000
   -8.4791  -25.6217   27.5222 C   0  0  0  0  0  0  0  0  0  0  0  0
   -7.5472  -24.4480   27.6164 C   0  0  0  0  0  0  0  0  0  0  0  0
   -6.1347  -24.6794   27.4578 C   0  0  0  0  0  0  0  0  0  0  0  0
   -5.3083  -23.6253   27.4768 C   0  0  0  0  0  0  0  0  0  0  0  0
   -5.7766  -22.2940   27.4173 N   0  0  0  0  0  0  0  0  0  0  0  0
   -5.2715  -21.0297   26.7987 C   0  0  0  0  0  0  0  0  0  0  0  0
   -5.8995  -19.5084   26.9787 C   0  0  0  0  0  0  0  0  0  0  0  0
   -6.3146  -17.7945   28.2699 C   0  0  0  0  0  0  0  0  0  0  0  0
   -5.8441  -16.1926   29.2712 N   0  0  0  0  0  0  0  0  0  0  0  0
   -6.3540  -14.4590   29.0534 C   0  0  0  0  0  0  0  0  0  0  0  0
   -7.0675  -13.9473   28.2091 O   0  0  0  0  0  0  0  0  0  0  0  0
   -5.4869  -13.7920   30.2400 N   0  0  0  0  0  0  0  0  0  0  0  0
   -5.1841  -12.1655   30.6254 C   0  0  0  0  0  0  0  0  0  0  0  0
   -5.9116  -11.1177   31.5743 C   0  0  0  0  0  0  0  0  0  0  0  0
   -5.3446   -9.8084   32.2688 C   0  0  0  0  0  0  0  0  0  0  0  0
   -3.9124   -9.5304   32.1615 C   0  0  0  0  0  0  0  0  0  0  0  0
   -2.9970   -8.7559   32.8400 N   0  0  0  0  0  0  0  0  0  0  0  0
   -1.8102   -8.7086   32.1732 C   0  0  0  0  0  0  0  0  0  0  0  0
   -1.8220   -9.7743   31.3034 C   0  0  0  0  0  0  0  0  0  0  0  0
   -3.1039  -10.4060   31.3425 C   0  0  0  0  0  0  0  0  0  0  0  0
   -3.8008  -11.7632   30.5303 C   0  0  0  0  0  0  0  0  0  0  0  0
   -7.2323  -20.7392   27.4542 N   0  0  0  0  0  0  0  0  0  0  0  0
   -7.0859  -22.0580   27.6377 C   0  0  0  0  0  0  0  0  0  0  0  0
   -7.9563  -23.1886   27.8625 C   0  0  0  0  0  0  0  0  0  0  0  0
   -9.5124  -25.2943   27.3627 H   0  0  0  0  0  0  0  0  0  0  0  0
   -8.2094  -26.2651   26.6791 H   0  0  0  0  0  0  0  0  0  0  0  0
   -8.4611  -26.2201   28.4331 H   0  0  0  0  0  0  0  0  0  0  0  0
   -5.7442  -25.6911   27.4064 H   0  0  0  0  0  0  0  0  0  0  0  0
   -4.2607  -23.8226   27.5299 H   0  0  0  0  0  0  0  0  0  0  0  0
   -4.7386  -21.1327   25.8641 H   0  0  0  0  0  0  0  0  0  0  0  0
   -7.4582  -17.8374   28.4470 H   0  0  0  0  0  0  0  0  0  0  0  0
   -5.8818  -18.0751   29.2435 H   0  0  0  0  0  0  0  0  0  0  0  0
   -5.3210  -16.3000   30.1075 H   0  0  0  0  0  0  0  0  0  0  0  0
   -5.1005  -14.4787   30.7741 H   0  0  0  0  0  0  0  0  0  0  0  0
   -6.9436  -11.2829   31.8820 H   0  0  0  0  0  0  0  0  0  0  0  0
   -6.0010   -9.2102   32.8868 H   0  0  0  0  0  0  0  0  0  0  0  0
   -3.1432   -8.3588   33.7558 H   0  0  0  0  0  0  0  0  0  0  0  0
   -1.0425   -7.9851   32.4230 H   0  0  0  0  0  0  0  0  0  0  0  0
   -1.1006  -10.0495   30.5400 H   0  0  0  0  0  0  0  0  0  0  0  0
   -3.1958  -12.2672   29.7927 H   0  0  0  0  0  0  0  0  0  0  0  0
   -8.9987  -23.0088   28.0941 H   0  0  0  0  0  0  0  0  0  0  0  0
  1  2  1  0
  2  3  1  0
  3  4  2  0
  4  5  1  0
  5  6  1  0
  6  7  2  0
  7  8  1  0
  8  9  1  0
  9 10  1  0
 10 11  2  0
 10 12  1  0
 12 13  1  0
 13 14  2  0
 14 15  1  0
 15 16  2  0
 16 17  1  0
 17 18  1  0
 18 19  2  0
 19 20  1  0
 20 21  2  0
  7 22  1  0
 22 23  2  0
 23 24  1  0
 24  2  2  0
 23  5  1  0
 21 13  1  0
 20 16  1  0
  1 25  1  0
  1 26  1  0
  1 27  1  0
  3 28  1  0
  4 29  1  0
  6 30  1  0
  8 31  1  0
  8 32  1  0
  9 33  1  0
 12 34  1  0
 14 35  1  0
 15 36  1  0
 17 37  1  0
 18 38  1  0
 19 39  1  0
 21 40  1  0
 24 41  1  0
M  END
>  <Energy>  (697) 
615.14143202599507

>  <compound_id>  (697) 
5673

>  <target_id>  (697) 
1

>  <reference_id>  (697) 
45

>  <inspiration_ids>  (697) 
[45, 40]

>  <energy_score>  (697) 
604.32640601327

>  <distance_score>  (697) 
6.449143375719519

>  <path>  (697) 
/opt/xchem-fragalysis-2/maxwin/BulkDock/SCRATCH/511018/C5673-P45/C5673-P45.minimised.mol

>  <scratch_subdir>  (697) 
/opt/xchem-fragalysis-2/maxwin/BulkDock/SCRATCH/511018/C5673-P45

>  <fragmenstein_runtime>  (697) 
17.75692367553711

>  <fragmenstein_outcome>  (697) 
too moved

>  <fragmenstein_mode>  (697) 
expansion

>  <fragmenstein_error>  (697) 


$$$$
C5673-P40
     RDKit          3D

 41 44  0  0  0  0  0  0  0  0999 V2000
   -5.1377  -27.3434   26.9794 C   0  0  0  0  0  0  0  0  0  0  0  0
   -4.5965  -25.8375   27.1629 C   0  0  0  0  0  0  0  0  0  0  0  0
   -3.8937  -25.5947   25.9892 C   0  0  0  0  0  0  0  0  0  0  0  0
   -3.3207  -24.9244   26.8576 C   0  0  0  0  0  0  0  0  0  0  0  0
   -4.0785  -23.4085   27.4148 N   0  0  0  0  0  0  0  0  0  0  0  0
   -5.2786  -22.2281   26.7199 C   0  0  0  0  0  0  0  0  0  0  0  0
   -5.7649  -21.1342   27.4540 C   0  0  0  0  0  0  0  0  0  0  0  0
   -5.4368  -19.0236   27.5228 C   0  0  0  0  0  0  0  0  0  0  0  0
   -4.0966  -17.5628   27.8865 N   0  0  0  0  0  0  0  0  0  0  0  0
   -4.2121  -16.0894   28.9246 C   0  0  0  0  0  0  0  0  0  0  0  0
   -5.1725  -15.8940   29.6404 O   0  0  0  0  0  0  0  0  0  0  0  0
   -2.7966  -14.7089   28.6573 N   0  0  0  0  0  0  0  0  0  0  0  0
   -2.6998  -12.7629   29.2519 C   0  0  0  0  0  0  0  0  0  0  0  0
   -3.2847  -11.5010   29.7873 C   0  0  0  0  0  0  0  0  0  0  0  0
   -2.9775   -9.9434   31.0050 C   0  0  0  0  0  0  0  0  0  0  0  0
   -1.6280   -9.5070   31.2807 C   0  0  0  0  0  0  0  0  0  0  0  0
   -1.0841   -8.3146   31.6578 N   0  0  0  0  0  0  0  0  0  0  0  0
   -0.3252   -7.8777   30.5947 C   0  0  0  0  0  0  0  0  0  0  0  0
   -0.2668   -8.9064   29.6588 C   0  0  0  0  0  0  0  0  0  0  0  0
   -0.9920  -10.0691   30.1675 C   0  0  0  0  0  0  0  0  0  0  0  0
   -1.8363  -11.5168   29.6519 C   0  0  0  0  0  0  0  0  0  0  0  0
   -5.3905  -22.2968   28.6870 N   0  0  0  0  0  0  0  0  0  0  0  0
   -4.5607  -23.4243   28.6872 C   0  0  0  0  0  0  0  0  0  0  0  0
   -4.8056  -24.9062   28.6353 C   0  0  0  0  0  0  0  0  0  0  0  0
   -4.3742  -28.1210   27.0675 H   0  0  0  0  0  0  0  0  0  0  0  0
   -5.5300  -27.4487   25.9904 H   0  0  0  0  0  0  0  0  0  0  0  0
   -5.8893  -27.5224   27.7403 H   0  0  0  0  0  0  0  0  0  0  0  0
   -4.0066  -25.3227   24.9619 H   0  0  0  0  0  0  0  0  0  0  0  0
   -2.1888  -24.9462   26.9121 H   0  0  0  0  0  0  0  0  0  0  0  0
   -5.7925  -22.7409   25.9167 H   0  0  0  0  0  0  0  0  0  0  0  0
   -5.7182  -19.1778   26.4610 H   0  0  0  0  0  0  0  0  0  0  0  0
   -6.1499  -18.2633   27.8655 H   0  0  0  0  0  0  0  0  0  0  0  0
   -3.2683  -17.4909   27.3135 H   0  0  0  0  0  0  0  0  0  0  0  0
   -2.0474  -15.0969   28.0961 H   0  0  0  0  0  0  0  0  0  0  0  0
   -4.3048  -11.7015   29.3395 H   0  0  0  0  0  0  0  0  0  0  0  0
   -3.7406   -9.1781   31.3265 H   0  0  0  0  0  0  0  0  0  0  0  0
   -1.4159   -7.7406   32.4232 H   0  0  0  0  0  0  0  0  0  0  0  0
    0.0904   -6.8786   30.5932 H   0  0  0  0  0  0  0  0  0  0  0  0
    0.2580   -8.7738   28.7444 H   0  0  0  0  0  0  0  0  0  0  0  0
   -1.0928  -11.8277   30.4662 H   0  0  0  0  0  0  0  0  0  0  0  0
   -5.3736  -25.3295   29.4704 H   0  0  0  0  0  0  0  0  0  0  0  0
  1  2  1  0
  2  3  1  0
  3  4  2  0
  4  5  1  0
  5  6  1  0
  6  7  2  0
  7  8  1  0
  8  9  1  0
  9 10  1  0
 10 11  2  0
 10 12  1  0
 12 13  1  0
 13 14  2  0
 14 15  1  0
 15 16  2  0
 16 17  1  0
 17 18  1  0
 18 19  2  0
 19 20  1  0
 20 21  2  0
  7 22  1  0
 22 23  2  0
 23 24  1  0
 24  2  2  0
 23  5  1  0
 21 13  1  0
 20 16  1  0
  1 25  1  0
  1 26  1  0
  1 27  1  0
  3 28  1  0
  4 29  1  0
  6 30  1  0
  8 31  1  0
  8 32  1  0
  9 33  1  0
 12 34  1  0
 14 35  1  0
 15 36  1  0
 17 37  1  0
 18 38  1  0
 19 39  1  0
 21 40  1  0
 24 41  1  0
M  END
>  <Energy>  (698) 
1453.3151637046901

>  <compound_id>  (698) 
5673

>  <target_id>  (698) 
1

>  <reference_id>  (698) 
40

>  <inspiration_ids>  (698) 
[45, 40]

>  <energy_score>  (698) 
1442.5001376919754

>  <distance_score>  (698) 
5.845232527646359

>  <path>  (698) 
/opt/xchem-fragalysis-2/maxwin/BulkDock/SCRATCH/511018/C5673-P40/C5673-P40.minimised.mol

>  <scratch_subdir>  (698) 
/opt/xchem-fragalysis-2/maxwin/BulkDock/SCRATCH/511018/C5673-P40

>  <fragmenstein_runtime>  (698) 
17.33276867866516

>  <fragmenstein_outcome>  (698) 
too moved

>  <fragmenstein_mode>  (698) 
expansion

>  <fragmenstein_error>  (698) 


$$$$
C5674-P45
     RDKit          3D

 41 44  0  0  0  0  0  0  0  0999 V2000
   -4.5470  -24.3452   27.3462 C   0  0  0  0  0  0  0  0  0  0  0  0
   -5.4330  -23.1577   27.5753 C   0  0  0  0  0  0  0  0  0  0  0  0
   -6.4947  -23.7852   28.1461 C   0  0  0  0  0  0  0  0  0  0  0  0
   -7.7293  -23.1498   28.3099 C   0  0  0  0  0  0  0  0  0  0  0  0
   -7.7212  -22.0474   27.5775 C   0  0  0  0  0  0  0  0  0  0  0  0
   -6.7128  -21.0555   27.5449 C   0  0  0  0  0  0  0  0  0  0  0  0
   -6.1988  -19.6417   26.8953 N   0  0  0  0  0  0  0  0  0  0  0  0
   -4.9074  -18.4953   27.7047 C   0  0  0  0  0  0  0  0  0  0  0  0
   -3.9850  -16.6047   28.4747 C   0  0  0  0  0  0  0  0  0  0  0  0
   -2.9248  -15.0181   29.3445 N   0  0  0  0  0  0  0  0  0  0  0  0
   -3.5554  -13.2650   29.9317 C   0  0  0  0  0  0  0  0  0  0  0  0
   -4.7065  -12.9017   29.9514 O   0  0  0  0  0  0  0  0  0  0  0  0
   -2.2136  -12.3119   30.2801 N   0  0  0  0  0  0  0  0  0  0  0  0
   -2.0595  -10.6857   30.6143 C   0  0  0  0  0  0  0  0  0  0  0  0
   -2.5419   -9.8123   31.6894 C   0  0  0  0  0  0  0  0  0  0  0  0
   -2.0006   -8.5475   32.1223 C   0  0  0  0  0  0  0  0  0  0  0  0
   -1.1255   -7.8950   31.2589 C   0  0  0  0  0  0  0  0  0  0  0  0
   -0.5943   -6.6262   31.2729 N   0  0  0  0  0  0  0  0  0  0  0  0
   -0.2027   -6.2910   30.0012 C   0  0  0  0  0  0  0  0  0  0  0  0
   -0.3210   -7.4237   29.2243 C   0  0  0  0  0  0  0  0  0  0  0  0
   -0.6900   -8.5075   30.0865 C   0  0  0  0  0  0  0  0  0  0  0  0
   -0.9591   -9.9457   29.8950 C   0  0  0  0  0  0  0  0  0  0  0  0
   -5.2670  -19.9357   26.4580 C   0  0  0  0  0  0  0  0  0  0  0  0
   -5.5184  -21.5790   27.2694 N   0  0  0  0  0  0  0  0  0  0  0  0
   -4.5990  -24.7003   26.3137 H   0  0  0  0  0  0  0  0  0  0  0  0
   -4.8160  -25.2705   27.8769 H   0  0  0  0  0  0  0  0  0  0  0  0
   -3.5786  -24.2159   27.7865 H   0  0  0  0  0  0  0  0  0  0  0  0
   -6.6073  -24.8532   28.2350 H   0  0  0  0  0  0  0  0  0  0  0  0
   -8.5862  -23.8230   28.2464 H   0  0  0  0  0  0  0  0  0  0  0  0
   -7.6260  -22.5418   26.6058 H   0  0  0  0  0  0  0  0  0  0  0  0
   -3.7646  -16.7096   29.5806 H   0  0  0  0  0  0  0  0  0  0  0  0
   -5.0121  -16.4576   29.1615 H   0  0  0  0  0  0  0  0  0  0  0  0
   -1.9090  -15.0387   29.3473 H   0  0  0  0  0  0  0  0  0  0  0  0
   -1.4044  -12.8781   30.2677 H   0  0  0  0  0  0  0  0  0  0  0  0
   -3.4959  -10.0037   32.1477 H   0  0  0  0  0  0  0  0  0  0  0  0
   -2.4062   -8.0491   32.9937 H   0  0  0  0  0  0  0  0  0  0  0  0
   -0.6292   -5.9919   32.0602 H   0  0  0  0  0  0  0  0  0  0  0  0
    0.1304   -5.2891   29.7665 H   0  0  0  0  0  0  0  0  0  0  0  0
   -0.0724   -7.4946   28.1746 H   0  0  0  0  0  0  0  0  0  0  0  0
   -0.5299  -10.3137   28.9749 H   0  0  0  0  0  0  0  0  0  0  0  0
   -4.6672  -20.2430   25.5651 H   0  0  0  0  0  0  0  0  0  0  0  0
  1  2  1  0
  2  3  2  0
  3  4  1  0
  4  5  2  0
  5  6  1  0
  6  7  2  0
  7  8  1  0
  8  9  1  0
  9 10  1  0
 10 11  1  0
 11 12  2  0
 11 13  1  0
 13 14  1  0
 14 15  2  0
 15 16  1  0
 16 17  2  0
 17 18  1  0
 18 19  1  0
 19 20  2  0
 20 21  1  0
 21 22  2  0
  8 23  2  0
 23 24  1  0
 24  2  1  0
 24  6  1  0
 22 14  1  0
 21 17  1  0
  1 25  1  0
  1 26  1  0
  1 27  1  0
  3 28  1  0
  4 29  1  0
  5 30  1  0
  9 31  1  0
  9 32  1  0
 10 33  1  0
 13 34  1  0
 15 35  1  0
 16 36  1  0
 18 37  1  0
 19 38  1  0
 20 39  1  0
 22 40  1  0
 23 41  1  0
M  END
>  <Energy>  (699) 
1362.8177862747468

>  <compound_id>  (699) 
5674

>  <target_id>  (699) 
1

>  <reference_id>  (699) 
45

>  <inspiration_ids>  (699) 
[45, 40]

>  <energy_score>  (699) 
1339.8788559271443

>  <distance_score>  (699) 
5.219190130354545

>  <path>  (699) 
/opt/xchem-fragalysis-2/maxwin/BulkDock/SCRATCH/511018/C5674-P45/C5674-P45.minimised.mol

>  <scratch_subdir>  (699) 
/opt/xchem-fragalysis-2/maxwin/BulkDock/SCRATCH/511018/C5674-P45

>  <fragmenstein_runtime>  (699) 
20.131181955337524

>  <fragmenstein_outcome>  (699) 
too moved

>  <fragmenstein_mode>  (699) 
expansion

>  <fragmenstein_error>  (699) 


$$$$
C5674-P40
     RDKit          3D

 41 44  0  0  0  0  0  0  0  0999 V2000
   -2.8897  -25.2363   26.2654 C   0  0  0  0  0  0  0  0  0  0  0  0
   -4.2894  -24.5326   26.5971 C   0  0  0  0  0  0  0  0  0  0  0  0
   -4.6283  -25.9378   26.7845 C   0  0  0  0  0  0  0  0  0  0  0  0
   -6.2409  -26.3157   27.0328 C   0  0  0  0  0  0  0  0  0  0  0  0
   -7.7252  -24.8737   26.5808 C   0  0  0  0  0  0  0  0  0  0  0  0
   -7.1672  -23.0138   26.5936 C   0  0  0  0  0  0  0  0  0  0  0  0
   -7.1822  -21.5917   27.4343 N   0  0  0  0  0  0  0  0  0  0  0  0
   -5.9022  -20.2340   27.0941 C   0  0  0  0  0  0  0  0  0  0  0  0
   -5.0006  -18.3840   27.6628 C   0  0  0  0  0  0  0  0  0  0  0  0
   -4.2551  -16.7883   28.7212 N   0  0  0  0  0  0  0  0  0  0  0  0
   -3.0323  -15.4841   28.3344 C   0  0  0  0  0  0  0  0  0  0  0  0
   -2.0553  -15.2407   27.0770 O   0  0  0  0  0  0  0  0  0  0  0  0
   -2.9365  -14.5449   28.9281 N   0  0  0  0  0  0  0  0  0  0  0  0
   -2.2268  -12.7998   28.8936 C   0  0  0  0  0  0  0  0  0  0  0  0
   -2.3268  -11.8571   29.7539 C   0  0  0  0  0  0  0  0  0  0  0  0
   -1.0812  -11.2244   30.5577 C   0  0  0  0  0  0  0  0  0  0  0  0
   -0.9864   -9.9551   30.2918 C   0  0  0  0  0  0  0  0  0  0  0  0
   -0.6434   -8.8060   30.9329 N   0  0  0  0  0  0  0  0  0  0  0  0
   -0.2214   -7.9358   29.9947 C   0  0  0  0  0  0  0  0  0  0  0  0
   -0.4058   -8.6005   28.8005 C   0  0  0  0  0  0  0  0  0  0  0  0
   -0.9908  -10.0218   28.9174 C   0  0  0  0  0  0  0  0  0  0  0  0
   -2.0245  -11.3834   28.1887 C   0  0  0  0  0  0  0  0  0  0  0  0
   -5.2564  -21.7463   26.9173 C   0  0  0  0  0  0  0  0  0  0  0  0
   -5.5035  -23.0253   26.2333 N   0  0  0  0  0  0  0  0  0  0  0  0
   -2.9482  -25.2464   25.1801 H   0  0  0  0  0  0  0  0  0  0  0  0
   -2.6854  -26.1284   26.8257 H   0  0  0  0  0  0  0  0  0  0  0  0
   -1.8921  -24.8389   26.6242 H   0  0  0  0  0  0  0  0  0  0  0  0
   -4.1783  -26.9258   26.7642 H   0  0  0  0  0  0  0  0  0  0  0  0
   -6.1905  -27.5012   27.2939 H   0  0  0  0  0  0  0  0  0  0  0  0
   -6.6464  -26.1622   26.9786 H   0  0  0  0  0  0  0  0  0  0  0  0
   -3.9363  -18.6412   27.8526 H   0  0  0  0  0  0  0  0  0  0  0  0
   -5.8959  -18.0986   28.2118 H   0  0  0  0  0  0  0  0  0  0  0  0
   -4.7450  -16.5416   29.5935 H   0  0  0  0  0  0  0  0  0  0  0  0
   -3.1493  -13.9517   29.6055 H   0  0  0  0  0  0  0  0  0  0  0  0
   -3.3289  -11.4606   29.7687 H   0  0  0  0  0  0  0  0  0  0  0  0
   -0.1600  -11.7810   30.6264 H   0  0  0  0  0  0  0  0  0  0  0  0
   -0.5774   -8.6952   31.9375 H   0  0  0  0  0  0  0  0  0  0  0  0
    0.1211   -6.9372   30.2341 H   0  0  0  0  0  0  0  0  0  0  0  0
   -0.2857   -7.9924   27.9387 H   0  0  0  0  0  0  0  0  0  0  0  0
   -2.2317  -11.3811   27.1045 H   0  0  0  0  0  0  0  0  0  0  0  0
   -5.1480  -22.1941   27.9143 H   0  0  0  0  0  0  0  0  0  0  0  0
  1  2  1  0
  2  3  2  0
  3  4  1  0
  4  5  2  0
  5  6  1  0
  6  7  2  0
  7  8  1  0
  8  9  1  0
  9 10  1  0
 10 11  1  0
 11 12  2  0
 11 13  1  0
 13 14  1  0
 14 15  2  0
 15 16  1  0
 16 17  2  0
 17 18  1  0
 18 19  1  0
 19 20  2  0
 20 21  1  0
 21 22  2  0
  8 23  2  0
 23 24  1  0
 24  2  1  0
 24  6  1  0
 22 14  1  0
 21 17  1  0
  1 25  1  0
  1 26  1  0
  1 27  1  0
  3 28  1  0
  4 29  1  0
  5 30  1  0
  9 31  1  0
  9 32  1  0
 10 33  1  0
 13 34  1  0
 15 35  1  0
 16 36  1  0
 18 37  1  0
 19 38  1  0
 20 39  1  0
 22 40  1  0
 23 41  1  0
M  END
>  <Energy>  (700) 
2274.9081652591753

>  <compound_id>  (700) 
5674

>  <target_id>  (700) 
1

>  <reference_id>  (700) 
40

>  <inspiration_ids>  (700) 
[45, 40]

>  <energy_score>  (700) 
2251.969234911585

>  <distance_score>  (700) 
5.535466740635354

>  <path>  (700) 
/opt/xchem-fragalysis-2/maxwin/BulkDock/SCRATCH/511018/C5674-P40/C5674-P40.minimised.mol

>  <scratch_subdir>  (700) 
/opt/xchem-fragalysis-2/maxwin/BulkDock/SCRATCH/511018/C5674-P40

>  <fragmenstein_runtime>  (700) 
25.354976654052734

>  <fragmenstein_outcome>  (700) 
too moved

>  <fragmenstein_mode>  (700) 
expansion

>  <fragmenstein_error>  (700) 


$$$$
C5675-P45
     RDKit          3D

 38 41  0  0  0  0  0  0  0  0999 V2000
   -4.2739  -15.8964   30.2008 O   0  0  0  0  0  0  0  0  0  0  0  0
   -3.4469  -15.7554   29.4336 C   0  0  0  0  0  0  0  0  0  0  0  0
   -3.4397  -17.1155   28.1022 N   0  0  0  0  0  0  0  0  0  0  0  0
   -4.7799  -18.6439   27.7448 C   0  0  0  0  0  0  0  0  0  0  0  0
   -5.6552  -20.4671   27.1454 C   0  0  0  0  0  0  0  0  0  0  0  0
   -5.3282  -22.0032   27.3401 C   0  0  0  0  0  0  0  0  0  0  0  0
   -6.2435  -23.0194   27.1197 N   0  0  0  0  0  0  0  0  0  0  0  0
   -6.0392  -24.3876   26.9054 C   0  0  0  0  0  0  0  0  0  0  0  0
   -7.0490  -25.2429   27.1199 C   0  0  0  0  0  0  0  0  0  0  0  0
   -6.9079  -26.9359   26.8696 Cl  0  0  0  0  0  0  0  0  0  0  0  0
   -8.2803  -24.7237   27.6682 C   0  0  0  0  0  0  0  0  0  0  0  0
   -8.4155  -23.4096   27.9331 C   0  0  0  0  0  0  0  0  0  0  0  0
   -7.3726  -22.4642   27.6079 C   0  0  0  0  0  0  0  0  0  0  0  0
   -7.2164  -21.1159   27.5818 N   0  0  0  0  0  0  0  0  0  0  0  0
   -2.5325  -14.1146   29.4081 N   0  0  0  0  0  0  0  0  0  0  0  0
   -2.8906  -12.4290   30.3231 C   0  0  0  0  0  0  0  0  0  0  0  0
   -4.0392  -11.7588   30.8138 C   0  0  0  0  0  0  0  0  0  0  0  0
   -3.9540  -10.2515   31.8626 C   0  0  0  0  0  0  0  0  0  0  0  0
   -2.8554   -9.4293   32.1581 C   0  0  0  0  0  0  0  0  0  0  0  0
   -2.4922   -8.4531   33.0254 N   0  0  0  0  0  0  0  0  0  0  0  0
   -1.4837   -7.7116   32.4676 C   0  0  0  0  0  0  0  0  0  0  0  0
   -1.0898   -8.3841   31.3349 C   0  0  0  0  0  0  0  0  0  0  0  0
   -1.8034   -9.6577   31.3340 C   0  0  0  0  0  0  0  0  0  0  0  0
   -1.9402  -10.9205   30.4699 C   0  0  0  0  0  0  0  0  0  0  0  0
   -2.6299  -16.9723   27.5086 H   0  0  0  0  0  0  0  0  0  0  0  0
   -5.4916  -18.1465   28.4914 H   0  0  0  0  0  0  0  0  0  0  0  0
   -5.4570  -18.2514   27.1207 H   0  0  0  0  0  0  0  0  0  0  0  0
   -4.8256  -22.4190   28.1947 H   0  0  0  0  0  0  0  0  0  0  0  0
   -5.0581  -24.7131   26.5896 H   0  0  0  0  0  0  0  0  0  0  0  0
   -9.0961  -25.4128   27.8634 H   0  0  0  0  0  0  0  0  0  0  0  0
   -9.3670  -23.0368   28.2939 H   0  0  0  0  0  0  0  0  0  0  0  0
   -1.7740  -14.1714   28.7369 H   0  0  0  0  0  0  0  0  0  0  0  0
   -5.0203  -12.2176   30.7243 H   0  0  0  0  0  0  0  0  0  0  0  0
   -4.9492   -9.9671   32.2861 H   0  0  0  0  0  0  0  0  0  0  0  0
   -2.9269   -8.2842   33.9212 H   0  0  0  0  0  0  0  0  0  0  0  0
   -1.1270   -6.7965   32.9240 H   0  0  0  0  0  0  0  0  0  0  0  0
   -0.3057   -8.0724   30.6550 H   0  0  0  0  0  0  0  0  0  0  0  0
   -1.2224  -10.6809   29.6687 H   0  0  0  0  0  0  0  0  0  0  0  0
  1  2  2  0
  2  3  1  0
  3  4  1  0
  4  5  1  0
  5  6  2  0
  6  7  1  0
  7  8  1  0
  8  9  2  0
  9 10  1  0
  9 11  1  0
 11 12  2  0
 12 13  1  0
 13 14  2  0
  2 15  1  0
 15 16  1  0
 16 17  2  0
 17 18  1  0
 18 19  2  0
 19 20  1  0
 20 21  1  0
 21 22  2  0
 22 23  1  0
 23 24  2  0
 14  5  1  0
 24 16  1  0
 13  7  1  0
 23 19  1  0
  3 25  1  0
  4 26  1  0
  4 27  1  0
  6 28  1  0
  8 29  1  0
 11 30  1  0
 12 31  1  0
 15 32  1  0
 17 33  1  0
 18 34  1  0
 20 35  1  0
 21 36  1  0
 22 37  1  0
 24 38  1  0
M  END
>  <Energy>  (701) 
834.24753362722527

>  <compound_id>  (701) 
5675

>  <target_id>  (701) 
1

>  <reference_id>  (701) 
45

>  <inspiration_ids>  (701) 
[45, 40]

>  <energy_score>  (701) 
856.8927632765987

>  <distance_score>  (701) 
5.989773747599243

>  <path>  (701) 
/opt/xchem-fragalysis-2/maxwin/BulkDock/SCRATCH/511018/C5675-P45/C5675-P45.minimised.mol

>  <scratch_subdir>  (701) 
/opt/xchem-fragalysis-2/maxwin/BulkDock/SCRATCH/511018/C5675-P45

>  <fragmenstein_runtime>  (701) 
14.4656982421875

>  <fragmenstein_outcome>  (701) 
too moved

>  <fragmenstein_mode>  (701) 
expansion

>  <fragmenstein_error>  (701) 


$$$$
C5675-P40
     RDKit          3D

 38 41  0  0  0  0  0  0  0  0999 V2000
   -8.9459  -15.4231   23.1018 O   0  0  0  0  0  0  0  0  0  0  0  0
   -9.3793  -14.8580   24.0379 C   0  0  0  0  0  0  0  0  0  0  0  0
  -10.6314  -15.1256   24.8418 N   0  0  0  0  0  0  0  0  0  0  0  0
  -11.7091  -16.0902   24.6337 C   0  0  0  0  0  0  0  0  0  0  0  0
  -11.7433  -17.4619   25.2753 C   0  0  0  0  0  0  0  0  0  0  0  0
  -12.1005  -18.6376   24.6199 C   0  0  0  0  0  0  0  0  0  0  0  0
  -12.2634  -19.6081   25.5793 N   0  0  0  0  0  0  0  0  0  0  0  0
  -12.6326  -20.9452   25.4385 C   0  0  0  0  0  0  0  0  0  0  0  0
  -12.6733  -21.7291   26.5282 C   0  0  0  0  0  0  0  0  0  0  0  0
  -13.1527  -23.3722   26.4342 Cl  0  0  0  0  0  0  0  0  0  0  0  0
  -12.3326  -21.1605   27.8214 C   0  0  0  0  0  0  0  0  0  0  0  0
  -12.0245  -19.8525   27.9509 C   0  0  0  0  0  0  0  0  0  0  0  0
  -11.9819  -19.0033   26.8011 C   0  0  0  0  0  0  0  0  0  0  0  0
  -11.6952  -17.7157   26.6437 N   0  0  0  0  0  0  0  0  0  0  0  0
   -8.8953  -13.5828   24.7264 N   0  0  0  0  0  0  0  0  0  0  0  0
   -7.8538  -12.6786   24.3767 C   0  0  0  0  0  0  0  0  0  0  0  0
   -7.7653  -11.4347   25.0166 C   0  0  0  0  0  0  0  0  0  0  0  0
   -6.7179  -10.5109   24.8102 C   0  0  0  0  0  0  0  0  0  0  0  0
   -5.7288  -10.8776   23.9012 C   0  0  0  0  0  0  0  0  0  0  0  0
   -4.5861  -10.2255   23.4927 N   0  0  0  0  0  0  0  0  0  0  0  0
   -3.8929  -11.0098   22.6131 C   0  0  0  0  0  0  0  0  0  0  0  0
   -4.6195  -12.1550   22.4019 C   0  0  0  0  0  0  0  0  0  0  0  0
   -5.7917  -12.0824   23.2003 C   0  0  0  0  0  0  0  0  0  0  0  0
   -6.8876  -12.9650   23.4123 C   0  0  0  0  0  0  0  0  0  0  0  0
  -10.6612  -14.5041   25.6271 H   0  0  0  0  0  0  0  0  0  0  0  0
  -11.7654  -16.2278   23.5466 H   0  0  0  0  0  0  0  0  0  0  0  0
  -12.6267  -15.5702   24.9333 H   0  0  0  0  0  0  0  0  0  0  0  0
  -12.2872  -18.8413   23.5749 H   0  0  0  0  0  0  0  0  0  0  0  0
  -12.8644  -21.2942   24.4409 H   0  0  0  0  0  0  0  0  0  0  0  0
  -12.3668  -21.8097   28.6913 H   0  0  0  0  0  0  0  0  0  0  0  0
  -11.8178  -19.4166   28.9192 H   0  0  0  0  0  0  0  0  0  0  0  0
   -9.4450  -13.4187   25.5487 H   0  0  0  0  0  0  0  0  0  0  0  0
   -8.5642  -11.1286   25.6736 H   0  0  0  0  0  0  0  0  0  0  0  0
   -6.6931   -9.5668   25.3432 H   0  0  0  0  0  0  0  0  0  0  0  0
   -4.2949   -9.3091   23.8118 H   0  0  0  0  0  0  0  0  0  0  0  0
   -2.9451  -10.7081   22.1991 H   0  0  0  0  0  0  0  0  0  0  0  0
   -4.3337  -12.9701   21.7502 H   0  0  0  0  0  0  0  0  0  0  0  0
   -6.9156  -13.9029   22.8648 H   0  0  0  0  0  0  0  0  0  0  0  0
  1  2  2  0
  2  3  1  0
  3  4  1  0
  4  5  1  0
  5  6  2  0
  6  7  1  0
  7  8  1  0
  8  9  2  0
  9 10  1  0
  9 11  1  0
 11 12  2  0
 12 13  1  0
 13 14  2  0
  2 15  1  0
 15 16  1  0
 16 17  2  0
 17 18  1  0
 18 19  2  0
 19 20  1  0
 20 21  1  0
 21 22  2  0
 22 23  1  0
 23 24  2  0
 14  5  1  0
 24 16  1  0
 13  7  1  0
 23 19  1  0
  3 25  1  0
  4 26  1  0
  4 27  1  0
  6 28  1  0
  8 29  1  0
 11 30  1  0
 12 31  1  0
 15 32  1  0
 17 33  1  0
 18 34  1  0
 20 35  1  0
 21 36  1  0
 22 37  1  0
 24 38  1  0
M  END
>  <Energy>  (702) 
-14.371022597673241

>  <compound_id>  (702) 
5675

>  <target_id>  (702) 
1

>  <reference_id>  (702) 
40

>  <inspiration_ids>  (702) 
[45, 40]

>  <energy_score>  (702) 
8.274207051726194

>  <distance_score>  (702) 
10.456076060109595

>  <path>  (702) 
/opt/xchem-fragalysis-2/maxwin/BulkDock/SCRATCH/511018/C5675-P40/C5675-P40.minimised.mol

>  <scratch_subdir>  (702) 
/opt/xchem-fragalysis-2/maxwin/BulkDock/SCRATCH/511018/C5675-P40

>  <fragmenstein_runtime>  (702) 
24.04983901977539

>  <fragmenstein_outcome>  (702) 
too moved

>  <fragmenstein_mode>  (702) 
expansion

>  <fragmenstein_error>  (702) 


$$$$
C5676-P45
     RDKit          3D

 34 38  0  0  0  0  0  0  0  0999 V2000
   -6.5261  -24.4704   27.0961 C   0  0  0  0  0  0  0  0  0  0  0  0
   -5.3829  -25.3507   27.1185 C   0  0  0  0  0  0  0  0  0  0  0  0
   -4.3887  -25.1050   27.9935 C   0  0  0  0  0  0  0  0  0  0  0  0
   -4.4747  -24.0408   28.9523 N   0  0  0  0  0  0  0  0  0  0  0  0
   -3.7218  -23.4489   30.3364 C   0  0  0  0  0  0  0  0  0  0  0  0
   -3.2437  -22.0027   30.2963 C   0  0  0  0  0  0  0  0  0  0  0  0
   -1.2940  -20.8929   30.3361 C   0  0  0  0  0  0  0  0  0  0  0  0
   -0.3281  -19.4863   29.9504 N   0  0  0  0  0  0  0  0  0  0  0  0
   -0.0192  -17.8748   30.9764 C   0  0  0  0  0  0  0  0  0  0  0  0
   -0.3778  -15.8249   30.8191 C   0  0  0  0  0  0  0  0  0  0  0  0
   -1.6454  -14.9523   29.9644 C   0  0  0  0  0  0  0  0  0  0  0  0
   -2.5558  -13.3592   29.8230 C   0  0  0  0  0  0  0  0  0  0  0  0
   -2.0047  -12.0250   30.5185 C   0  0  0  0  0  0  0  0  0  0  0  0
   -2.0581  -10.6654   30.6813 N   0  0  0  0  0  0  0  0  0  0  0  0
   -0.9960  -10.0071   30.1123 C   0  0  0  0  0  0  0  0  0  0  0  0
   -0.0239  -10.9291   30.2659 C   0  0  0  0  0  0  0  0  0  0  0  0
   -0.6567  -12.4199   31.2996 C   0  0  0  0  0  0  0  0  0  0  0  0
   -0.1926  -14.2116   31.5022 C   0  0  0  0  0  0  0  0  0  0  0  0
   -1.1532  -18.6309   31.7983 N   0  0  0  0  0  0  0  0  0  0  0  0
   -0.7473  -20.3020   31.8135 O   0  0  0  0  0  0  0  0  0  0  0  0
   -4.6484  -22.0602   29.0449 N   0  0  0  0  0  0  0  0  0  0  0  0
   -5.3242  -23.0768   28.5816 C   0  0  0  0  0  0  0  0  0  0  0  0
   -6.4547  -23.3119   27.7689 C   0  0  0  0  0  0  0  0  0  0  0  0
   -7.3763  -24.7162   26.4717 H   0  0  0  0  0  0  0  0  0  0  0  0
   -5.3052  -26.1596   26.4017 H   0  0  0  0  0  0  0  0  0  0  0  0
   -3.4944  -25.6889   27.8508 H   0  0  0  0  0  0  0  0  0  0  0  0
   -4.1501  -23.6484   31.3258 H   0  0  0  0  0  0  0  0  0  0  0  0
   -1.5911  -15.1885   28.8633 H   0  0  0  0  0  0  0  0  0  0  0  0
   -3.6449  -13.2693   29.8294 H   0  0  0  0  0  0  0  0  0  0  0  0
   -2.7942  -10.2348   31.2221 H   0  0  0  0  0  0  0  0  0  0  0  0
   -0.8582   -8.9627   29.8496 H   0  0  0  0  0  0  0  0  0  0  0  0
    1.0193  -10.8505   29.9202 H   0  0  0  0  0  0  0  0  0  0  0  0
    0.5601  -14.0121   32.2540 H   0  0  0  0  0  0  0  0  0  0  0  0
   -7.2326  -22.5629   27.7207 H   0  0  0  0  0  0  0  0  0  0  0  0
  1  2  1  0
  2  3  2  0
  3  4  1  0
  4  5  1  0
  5  6  2  0
  6  7  1  0
  7  8  2  0
  8  9  1  0
  9 10  1  0
 10 11  2  0
 11 12  1  0
 12 13  2  0
 13 14  1  0
 14 15  1  0
 15 16  2  0
 16 17  1  0
 17 18  2  0
  9 19  2  0
 19 20  1  0
  6 21  1  0
 21 22  2  0
 22 23  1  0
 23  1  2  0
 22  4  1  0
 20  7  1  0
 18 10  1  0
 17 13  1  0
  1 24  1  0
  2 25  1  0
  3 26  1  0
  5 27  1  0
 11 28  1  0
 12 29  1  0
 14 30  1  0
 15 31  1  0
 16 32  1  0
 18 33  1  0
 23 34  1  0
M  END
>  <Energy>  (703) 
1304.4760682083026

>  <compound_id>  (703) 
5676

>  <target_id>  (703) 
1

>  <reference_id>  (703) 
45

>  <inspiration_ids>  (703) 
[45, 40]

>  <energy_score>  (703) 
1198.061186773669

>  <distance_score>  (703) 
7.408807942122526

>  <path>  (703) 
/opt/xchem-fragalysis-2/maxwin/BulkDock/SCRATCH/511018/C5676-P45/C5676-P45.minimised.mol

>  <scratch_subdir>  (703) 
/opt/xchem-fragalysis-2/maxwin/BulkDock/SCRATCH/511018/C5676-P45

>  <fragmenstein_runtime>  (703) 
14.675907373428345

>  <fragmenstein_outcome>  (703) 
too moved

>  <fragmenstein_mode>  (703) 
expansion

>  <fragmenstein_error>  (703) 


$$$$
C5676-P40
     RDKit          3D

 34 38  0  0  0  0  0  0  0  0999 V2000
   -4.6627  -23.7381   29.8328 C   0  0  0  0  0  0  0  0  0  0  0  0
   -5.0432  -23.6274   31.8121 C   0  0  0  0  0  0  0  0  0  0  0  0
   -4.4498  -22.7460   32.8541 C   0  0  0  0  0  0  0  0  0  0  0  0
   -3.5836  -21.6026   32.5218 N   0  0  0  0  0  0  0  0  0  0  0  0
   -3.0412  -20.0644   33.1803 C   0  0  0  0  0  0  0  0  0  0  0  0
   -2.6939  -18.6295   32.2440 C   0  0  0  0  0  0  0  0  0  0  0  0
   -3.5580  -16.5898   31.6301 C   0  0  0  0  0  0  0  0  0  0  0  0
   -2.7978  -15.1894   31.3067 N   0  0  0  0  0  0  0  0  0  0  0  0
   -2.7268  -14.4261   29.6232 C   0  0  0  0  0  0  0  0  0  0  0  0
   -2.6015  -12.5386   29.0441 C   0  0  0  0  0  0  0  0  0  0  0  0
   -2.2664  -11.5884   29.7987 C   0  0  0  0  0  0  0  0  0  0  0  0
   -1.0476  -10.9377   30.6293 C   0  0  0  0  0  0  0  0  0  0  0  0
   -0.7739   -9.7694   30.1212 C   0  0  0  0  0  0  0  0  0  0  0  0
   -0.4197   -8.5754   30.6937 N   0  0  0  0  0  0  0  0  0  0  0  0
   -0.0285   -7.7687   29.7095 C   0  0  0  0  0  0  0  0  0  0  0  0
   -0.3930   -8.5065   28.6145 C   0  0  0  0  0  0  0  0  0  0  0  0
   -0.9235   -9.9653   28.8105 C   0  0  0  0  0  0  0  0  0  0  0  0
   -2.0461  -11.3547   28.2508 C   0  0  0  0  0  0  0  0  0  0  0  0
   -3.0663  -15.3635   28.8157 N   0  0  0  0  0  0  0  0  0  0  0  0
   -4.3670  -16.0266   30.1125 O   0  0  0  0  0  0  0  0  0  0  0  0
   -3.2066  -20.2166   31.3860 N   0  0  0  0  0  0  0  0  0  0  0  0
   -3.3086  -21.5457   31.1856 C   0  0  0  0  0  0  0  0  0  0  0  0
   -4.1993  -22.4982   29.8265 C   0  0  0  0  0  0  0  0  0  0  0  0
   -5.2012  -24.4546   29.2616 H   0  0  0  0  0  0  0  0  0  0  0  0
   -5.7250  -24.3972   32.1159 H   0  0  0  0  0  0  0  0  0  0  0  0
   -4.7490  -22.8146   33.8923 H   0  0  0  0  0  0  0  0  0  0  0  0
   -3.2156  -20.2079   34.2319 H   0  0  0  0  0  0  0  0  0  0  0  0
   -3.2763  -11.2283   29.9810 H   0  0  0  0  0  0  0  0  0  0  0  0
   -1.1486  -10.6314   31.6523 H   0  0  0  0  0  0  0  0  0  0  0  0
   -0.3268   -8.4125   31.6896 H   0  0  0  0  0  0  0  0  0  0  0  0
    0.3266   -6.7561   29.8520 H   0  0  0  0  0  0  0  0  0  0  0  0
   -0.4458   -7.9474   27.7314 H   0  0  0  0  0  0  0  0  0  0  0  0
   -2.2110  -11.4119   27.1576 H   0  0  0  0  0  0  0  0  0  0  0  0
   -4.7070  -22.2113   28.9047 H   0  0  0  0  0  0  0  0  0  0  0  0
  1  2  1  0
  2  3  2  0
  3  4  1  0
  4  5  1  0
  5  6  2  0
  6  7  1  0
  7  8  2  0
  8  9  1  0
  9 10  1  0
 10 11  2  0
 11 12  1  0
 12 13  2  0
 13 14  1  0
 14 15  1  0
 15 16  2  0
 16 17  1  0
 17 18  2  0
  9 19  2  0
 19 20  1  0
  6 21  1  0
 21 22  2  0
 22 23  1  0
 23  1  2  0
 22  4  1  0
 20  7  1  0
 18 10  1  0
 17 13  1  0
  1 24  1  0
  2 25  1  0
  3 26  1  0
  5 27  1  0
 11 28  1  0
 12 29  1  0
 14 30  1  0
 15 31  1  0
 16 32  1  0
 18 33  1  0
 23 34  1  0
M  END
>  <Energy>  (704) 
1419.8749888231591

>  <compound_id>  (704) 
5676

>  <target_id>  (704) 
1

>  <reference_id>  (704) 
40

>  <inspiration_ids>  (704) 
[45, 40]

>  <energy_score>  (704) 
1313.460107388536

>  <distance_score>  (704) 
6.969162077349561

>  <path>  (704) 
/opt/xchem-fragalysis-2/maxwin/BulkDock/SCRATCH/511018/C5676-P40/C5676-P40.minimised.mol

>  <scratch_subdir>  (704) 
/opt/xchem-fragalysis-2/maxwin/BulkDock/SCRATCH/511018/C5676-P40

>  <fragmenstein_runtime>  (704) 
13.475166320800781

>  <fragmenstein_outcome>  (704) 
too moved

>  <fragmenstein_mode>  (704) 
expansion

>  <fragmenstein_error>  (704) 


$$$$
C5677-P45
     RDKit          3D

 34 38  0  0  0  0  0  0  0  0999 V2000
   -8.1275  -25.2501   27.0413 Br  0  0  0  0  0  0  0  0  0  0  0  0
   -6.5478  -24.3977   27.5109 C   0  0  0  0  0  0  0  0  0  0  0  0
   -5.3198  -25.1497   27.4666 C   0  0  0  0  0  0  0  0  0  0  0  0
   -4.2769  -24.7219   28.2178 C   0  0  0  0  0  0  0  0  0  0  0  0
   -4.3599  -23.5390   29.1040 N   0  0  0  0  0  0  0  0  0  0  0  0
   -3.5395  -22.2589   30.2135 C   0  0  0  0  0  0  0  0  0  0  0  0
   -2.7313  -20.7309   29.3348 C   0  0  0  0  0  0  0  0  0  0  0  0
   -2.9774  -18.9091   27.7203 C   0  0  0  0  0  0  0  0  0  0  0  0
   -3.4111  -17.2873   27.8707 N   0  0  0  0  0  0  0  0  0  0  0  0
   -2.5970  -15.7300   28.1549 C   0  0  0  0  0  0  0  0  0  0  0  0
   -2.7467  -14.3823   29.6290 C   0  0  0  0  0  0  0  0  0  0  0  0
   -4.1823  -13.5139   30.1115 C   0  0  0  0  0  0  0  0  0  0  0  0
   -4.5375  -12.0986   30.6460 C   0  0  0  0  0  0  0  0  0  0  0  0
   -3.4020  -11.1752   30.9014 C   0  0  0  0  0  0  0  0  0  0  0  0
   -3.1337   -9.9573   31.7024 N   0  0  0  0  0  0  0  0  0  0  0  0
   -1.8467   -9.5555   31.4764 C   0  0  0  0  0  0  0  0  0  0  0  0
   -1.3822  -10.3841   30.4261 C   0  0  0  0  0  0  0  0  0  0  0  0
   -2.2922  -11.4989   30.2450 C   0  0  0  0  0  0  0  0  0  0  0  0
   -2.5994  -12.8102   29.4746 C   0  0  0  0  0  0  0  0  0  0  0  0
   -1.5609  -16.5178   27.6685 N   0  0  0  0  0  0  0  0  0  0  0  0
   -1.6085  -17.9791   27.2357 O   0  0  0  0  0  0  0  0  0  0  0  0
   -4.4939  -21.7933   29.0319 N   0  0  0  0  0  0  0  0  0  0  0  0
   -5.1905  -22.7127   28.4239 C   0  0  0  0  0  0  0  0  0  0  0  0
   -6.4470  -23.1235   27.9186 C   0  0  0  0  0  0  0  0  0  0  0  0
   -5.2108  -25.9694   26.7614 H   0  0  0  0  0  0  0  0  0  0  0  0
   -3.3704  -25.1979   27.8801 H   0  0  0  0  0  0  0  0  0  0  0  0
   -3.5479  -22.7947   31.1689 H   0  0  0  0  0  0  0  0  0  0  0  0
   -5.1574  -14.0745   30.2262 H   0  0  0  0  0  0  0  0  0  0  0  0
   -5.4706  -11.9023   31.1402 H   0  0  0  0  0  0  0  0  0  0  0  0
   -3.8341   -9.4827   32.2601 H   0  0  0  0  0  0  0  0  0  0  0  0
   -1.4514   -8.6487   31.9232 H   0  0  0  0  0  0  0  0  0  0  0  0
   -0.4790  -10.1904   29.8524 H   0  0  0  0  0  0  0  0  0  0  0  0
   -3.1577  -12.3010   28.6411 H   0  0  0  0  0  0  0  0  0  0  0  0
   -7.2877  -22.4476   27.9337 H   0  0  0  0  0  0  0  0  0  0  0  0
  1  2  1  0
  2  3  1  0
  3  4  2  0
  4  5  1  0
  5  6  1  0
  6  7  2  0
  7  8  1  0
  8  9  2  0
  9 10  1  0
 10 11  1  0
 11 12  2  0
 12 13  1  0
 13 14  2  0
 14 15  1  0
 15 16  1  0
 16 17  2  0
 17 18  1  0
 18 19  2  0
 10 20  2  0
 20 21  1  0
  7 22  1  0
 22 23  2  0
 23 24  1  0
 24  2  2  0
 23  5  1  0
 21  8  1  0
 19 11  1  0
 18 14  1  0
  3 25  1  0
  4 26  1  0
  6 27  1  0
 12 28  1  0
 13 29  1  0
 15 30  1  0
 16 31  1  0
 17 32  1  0
 19 33  1  0
 24 34  1  0
M  END
>  <Energy>  (705) 
1526.2035345353775

>  <compound_id>  (705) 
5677

>  <target_id>  (705) 
1

>  <reference_id>  (705) 
45

>  <inspiration_ids>  (705) 
[45, 40]

>  <energy_score>  (705) 
1422.354541834236

>  <distance_score>  (705) 
7.1401796960283255

>  <path>  (705) 
/opt/xchem-fragalysis-2/maxwin/BulkDock/SCRATCH/511018/C5677-P45/C5677-P45.minimised.mol

>  <scratch_subdir>  (705) 
/opt/xchem-fragalysis-2/maxwin/BulkDock/SCRATCH/511018/C5677-P45

>  <fragmenstein_runtime>  (705) 
20.161452770233154

>  <fragmenstein_outcome>  (705) 
too moved

>  <fragmenstein_mode>  (705) 
expansion

>  <fragmenstein_error>  (705) 


$$$$
C5677-P40
     RDKit          3D

 34 38  0  0  0  0  0  0  0  0999 V2000
   -7.5295  -25.5758   30.8090 Br  0  0  0  0  0  0  0  0  0  0  0  0
   -5.6777  -24.3063   31.3763 C   0  0  0  0  0  0  0  0  0  0  0  0
   -4.8870  -24.0007   29.6410 C   0  0  0  0  0  0  0  0  0  0  0  0
   -4.3029  -22.6959   29.7438 C   0  0  0  0  0  0  0  0  0  0  0  0
   -3.6488  -21.8146   31.2579 N   0  0  0  0  0  0  0  0  0  0  0  0
   -2.5374  -20.6797   31.5677 C   0  0  0  0  0  0  0  0  0  0  0  0
   -2.7613  -19.2109   32.4332 C   0  0  0  0  0  0  0  0  0  0  0  0
   -3.3882  -17.0446   31.9849 C   0  0  0  0  0  0  0  0  0  0  0  0
   -2.5356  -15.5383   31.5552 N   0  0  0  0  0  0  0  0  0  0  0  0
   -2.8322  -14.4992   29.9754 C   0  0  0  0  0  0  0  0  0  0  0  0
   -2.5623  -12.4158   29.5786 C   0  0  0  0  0  0  0  0  0  0  0  0
   -1.3029  -11.5735   30.4876 C   0  0  0  0  0  0  0  0  0  0  0  0
   -1.1952  -10.1897   31.2488 C   0  0  0  0  0  0  0  0  0  0  0  0
   -0.7242   -9.3447   30.3957 C   0  0  0  0  0  0  0  0  0  0  0  0
   -0.2358   -8.1049   30.6746 N   0  0  0  0  0  0  0  0  0  0  0  0
    0.1748   -7.5953   29.5198 C   0  0  0  0  0  0  0  0  0  0  0  0
   -0.3926   -8.4880   28.6417 C   0  0  0  0  0  0  0  0  0  0  0  0
   -0.9384   -9.8391   29.1154 C   0  0  0  0  0  0  0  0  0  0  0  0
   -2.1137  -11.2770   28.7819 C   0  0  0  0  0  0  0  0  0  0  0  0
   -4.1520  -14.9384   30.6116 N   0  0  0  0  0  0  0  0  0  0  0  0
   -4.3271  -16.2811   30.7280 O   0  0  0  0  0  0  0  0  0  0  0  0
   -3.9097  -20.5073   33.1120 N   0  0  0  0  0  0  0  0  0  0  0  0
   -4.0950  -21.9899   32.5877 C   0  0  0  0  0  0  0  0  0  0  0  0
   -5.1819  -23.4233   32.6380 C   0  0  0  0  0  0  0  0  0  0  0  0
   -5.1340  -24.7334   28.9460 H   0  0  0  0  0  0  0  0  0  0  0  0
   -4.6462  -22.2848   28.8192 H   0  0  0  0  0  0  0  0  0  0  0  0
   -1.9248  -20.8718   30.6952 H   0  0  0  0  0  0  0  0  0  0  0  0
   -0.2437  -11.8940   30.5282 H   0  0  0  0  0  0  0  0  0  0  0  0
   -1.8617   -9.7452   31.9864 H   0  0  0  0  0  0  0  0  0  0  0  0
   -0.1042   -7.7237   31.6052 H   0  0  0  0  0  0  0  0  0  0  0  0
    0.6058   -6.6076   29.4138 H   0  0  0  0  0  0  0  0  0  0  0  0
   -0.5623   -8.0353   27.7113 H   0  0  0  0  0  0  0  0  0  0  0  0
   -2.2767  -11.4113   27.6974 H   0  0  0  0  0  0  0  0  0  0  0  0
   -5.7245  -23.4553   33.5775 H   0  0  0  0  0  0  0  0  0  0  0  0
  1  2  1  0
  2  3  1  0
  3  4  2  0
  4  5  1  0
  5  6  1  0
  6  7  2  0
  7  8  1  0
  8  9  2  0
  9 10  1  0
 10 11  1  0
 11 12  2  0
 12 13  1  0
 13 14  2  0
 14 15  1  0
 15 16  1  0
 16 17  2  0
 17 18  1  0
 18 19  2  0
 10 20  2  0
 20 21  1  0
  7 22  1  0
 22 23  2  0
 23 24  1  0
 24  2  2  0
 23  5  1  0
 21  8  1  0
 19 11  1  0
 18 14  1  0
  3 25  1  0
  4 26  1  0
  6 27  1  0
 12 28  1  0
 13 29  1  0
 15 30  1  0
 16 31  1  0
 17 32  1  0
 19 33  1  0
 24 34  1  0
M  END
>  <Energy>  (706) 
1562.1306424483346

>  <compound_id>  (706) 
5677

>  <target_id>  (706) 
1

>  <reference_id>  (706) 
40

>  <inspiration_ids>  (706) 
[45, 40]

>  <energy_score>  (706) 
1458.2816497472054

>  <distance_score>  (706) 
6.6084607742613235

>  <path>  (706) 
/opt/xchem-fragalysis-2/maxwin/BulkDock/SCRATCH/511018/C5677-P40/C5677-P40.minimised.mol

>  <scratch_subdir>  (706) 
/opt/xchem-fragalysis-2/maxwin/BulkDock/SCRATCH/511018/C5677-P40

>  <fragmenstein_runtime>  (706) 
15.196741104125977

>  <fragmenstein_outcome>  (706) 
too moved

>  <fragmenstein_mode>  (706) 
expansion

>  <fragmenstein_error>  (706) 


$$$$
C5679-P45
     RDKit          3D

 44 47  0  0  0  0  0  0  0  0999 V2000
   -9.9309  -23.2468   28.2170 C   0  0  0  0  0  0  0  0  0  0  0  0
   -8.4409  -23.4224   27.8802 C   0  0  0  0  0  0  0  0  0  0  0  0
   -8.1297  -24.7232   27.6383 C   0  0  0  0  0  0  0  0  0  0  0  0
   -6.8513  -25.1524   27.1494 C   0  0  0  0  0  0  0  0  0  0  0  0
   -5.9263  -24.2169   26.9317 C   0  0  0  0  0  0  0  0  0  0  0  0
   -6.2323  -22.8641   27.1024 N   0  0  0  0  0  0  0  0  0  0  0  0
   -5.3563  -21.7828   27.2753 C   0  0  0  0  0  0  0  0  0  0  0  0
   -5.6888  -20.1680   27.0575 C   0  0  0  0  0  0  0  0  0  0  0  0
   -4.9466  -18.2881   27.7578 C   0  0  0  0  0  0  0  0  0  0  0  0
   -3.5647  -16.6983   28.4507 C   0  0  0  0  0  0  0  0  0  0  0  0
   -3.0112  -14.9647   29.3944 N   0  0  0  0  0  0  0  0  0  0  0  0
   -1.8697  -14.4783   29.7074 C   0  0  0  0  0  0  0  0  0  0  0  0
   -0.7860  -14.9289   29.6502 O   0  0  0  0  0  0  0  0  0  0  0  0
   -2.5120  -12.6814   30.1347 N   0  0  0  0  0  0  0  0  0  0  0  0
   -1.6051  -11.0775   30.4649 C   0  0  0  0  0  0  0  0  0  0  0  0
   -2.1294  -10.0308   31.4340 C   0  0  0  0  0  0  0  0  0  0  0  0
   -1.6902   -8.6761   31.8067 C   0  0  0  0  0  0  0  0  0  0  0  0
   -0.9078   -8.0376   30.8537 C   0  0  0  0  0  0  0  0  0  0  0  0
   -0.4772   -6.7385   30.7333 N   0  0  0  0  0  0  0  0  0  0  0  0
   -0.2421   -6.4642   29.4081 C   0  0  0  0  0  0  0  0  0  0  0  0
   -0.2847   -7.6619   28.7254 C   0  0  0  0  0  0  0  0  0  0  0  0
   -0.5610   -8.7100   29.6796 C   0  0  0  0  0  0  0  0  0  0  0  0
   -0.8096  -10.1774   29.5598 C   0  0  0  0  0  0  0  0  0  0  0  0
   -7.2443  -20.9817   27.5381 N   0  0  0  0  0  0  0  0  0  0  0  0
   -7.3987  -22.3665   27.5855 C   0  0  0  0  0  0  0  0  0  0  0  0
  -10.2481  -23.9290   29.0151 H   0  0  0  0  0  0  0  0  0  0  0  0
  -10.5554  -23.4943   27.3492 H   0  0  0  0  0  0  0  0  0  0  0  0
  -10.1765  -22.2252   28.5149 H   0  0  0  0  0  0  0  0  0  0  0  0
   -8.8718  -25.5087   27.7698 H   0  0  0  0  0  0  0  0  0  0  0  0
   -6.6481  -26.2084   27.0039 H   0  0  0  0  0  0  0  0  0  0  0  0
   -4.9260  -24.4997   26.6482 H   0  0  0  0  0  0  0  0  0  0  0  0
   -4.9372  -22.1689   28.1939 H   0  0  0  0  0  0  0  0  0  0  0  0
   -3.8872  -18.6159   27.7406 H   0  0  0  0  0  0  0  0  0  0  0  0
   -5.6525  -17.9847   28.6070 H   0  0  0  0  0  0  0  0  0  0  0  0
   -2.6817  -16.8964   27.8132 H   0  0  0  0  0  0  0  0  0  0  0  0
   -4.0006  -16.5876   29.4776 H   0  0  0  0  0  0  0  0  0  0  0  0
   -3.7307  -14.2917   29.6904 H   0  0  0  0  0  0  0  0  0  0  0  0
   -3.5148  -12.5887   30.0193 H   0  0  0  0  0  0  0  0  0  0  0  0
   -3.1050  -10.1803   31.8907 H   0  0  0  0  0  0  0  0  0  0  0  0
   -2.1598   -8.1385   32.6225 H   0  0  0  0  0  0  0  0  0  0  0  0
   -0.4834   -6.0552   31.4785 H   0  0  0  0  0  0  0  0  0  0  0  0
   -0.0217   -5.4570   29.0805 H   0  0  0  0  0  0  0  0  0  0  0  0
   -0.0871   -7.7890   27.6705 H   0  0  0  0  0  0  0  0  0  0  0  0
   -0.5416  -10.4468   28.5497 H   0  0  0  0  0  0  0  0  0  0  0  0
  1  2  1  0
  2  3  2  0
  3  4  1  0
  4  5  2  0
  5  6  1  0
  6  7  1  0
  7  8  2  0
  8  9  1  0
  9 10  1  0
 10 11  1  0
 11 12  1  0
 12 13  2  0
 12 14  1  0
 14 15  1  0
 15 16  2  0
 16 17  1  0
 17 18  2  0
 18 19  1  0
 19 20  1  0
 20 21  2  0
 21 22  1  0
 22 23  2  0
  8 24  1  0
 24 25  2  0
 25  2  1  0
 25  6  1  0
 23 15  1  0
 22 18  1  0
  1 26  1  0
  1 27  1  0
  1 28  1  0
  3 29  1  0
  4 30  1  0
  5 31  1  0
  7 32  1  0
  9 33  1  0
  9 34  1  0
 10 35  1  0
 10 36  1  0
 11 37  1  0
 14 38  1  0
 16 39  1  0
 17 40  1  0
 19 41  1  0
 20 42  1  0
 21 43  1  0
 23 44  1  0
M  END
>  <Energy>  (707) 
894.00263038809544

>  <compound_id>  (707) 
5679

>  <target_id>  (707) 
1

>  <reference_id>  (707) 
45

>  <inspiration_ids>  (707) 
[45, 40]

>  <energy_score>  (707) 
873.6998071382502

>  <distance_score>  (707) 
4.7586732498919995

>  <path>  (707) 
/opt/xchem-fragalysis-2/maxwin/BulkDock/SCRATCH/511018/C5679-P45/C5679-P45.minimised.mol

>  <scratch_subdir>  (707) 
/opt/xchem-fragalysis-2/maxwin/BulkDock/SCRATCH/511018/C5679-P45

>  <fragmenstein_runtime>  (707) 
23.299389600753784

>  <fragmenstein_outcome>  (707) 
too moved

>  <fragmenstein_mode>  (707) 
expansion

>  <fragmenstein_error>  (707) 


$$$$
C5679-P40
     RDKit          3D

 44 47  0  0  0  0  0  0  0  0999 V2000
   -6.1979  -24.8256   30.5876 C   0  0  0  0  0  0  0  0  0  0  0  0
   -5.5790  -23.7995   29.1138 C   0  0  0  0  0  0  0  0  0  0  0  0
   -4.6625  -24.6275   28.7108 C   0  0  0  0  0  0  0  0  0  0  0  0
   -4.0873  -24.8234   27.1931 C   0  0  0  0  0  0  0  0  0  0  0  0
   -4.0361  -23.5116   27.3573 C   0  0  0  0  0  0  0  0  0  0  0  0
   -5.0758  -22.3017   27.0376 N   0  0  0  0  0  0  0  0  0  0  0  0
   -5.0202  -20.9946   26.1368 C   0  0  0  0  0  0  0  0  0  0  0  0
   -5.8954  -19.8829   26.9538 C   0  0  0  0  0  0  0  0  0  0  0  0
   -5.2433  -18.1128   27.7719 C   0  0  0  0  0  0  0  0  0  0  0  0
   -4.4434  -16.6376   29.1234 C   0  0  0  0  0  0  0  0  0  0  0  0
   -3.4425  -15.0479   29.7459 N   0  0  0  0  0  0  0  0  0  0  0  0
   -2.3807  -13.9313   28.8681 C   0  0  0  0  0  0  0  0  0  0  0  0
   -2.0536  -14.1310   27.7470 O   0  0  0  0  0  0  0  0  0  0  0  0
   -2.1102  -12.3662   30.0318 N   0  0  0  0  0  0  0  0  0  0  0  0
   -1.2958  -10.7349   29.8192 C   0  0  0  0  0  0  0  0  0  0  0  0
   -1.3176   -9.8224   31.0772 C   0  0  0  0  0  0  0  0  0  0  0  0
   -0.9683   -8.4498   31.4060 C   0  0  0  0  0  0  0  0  0  0  0  0
   -0.3259   -7.7881   30.4177 C   0  0  0  0  0  0  0  0  0  0  0  0
    0.1605   -6.5083   30.3710 N   0  0  0  0  0  0  0  0  0  0  0  0
    0.9666   -6.3918   29.2817 C   0  0  0  0  0  0  0  0  0  0  0  0
    0.9011   -7.5974   28.6190 C   0  0  0  0  0  0  0  0  0  0  0  0
   -0.0166   -8.4804   29.2616 C   0  0  0  0  0  0  0  0  0  0  0  0
   -0.5754   -9.8636   29.0660 C   0  0  0  0  0  0  0  0  0  0  0  0
   -6.7787  -21.3339   27.6566 N   0  0  0  0  0  0  0  0  0  0  0  0
   -5.9694  -22.3228   28.1048 C   0  0  0  0  0  0  0  0  0  0  0  0
   -5.7954  -24.4448   31.5423 H   0  0  0  0  0  0  0  0  0  0  0  0
   -5.8827  -25.8778   30.4691 H   0  0  0  0  0  0  0  0  0  0  0  0
   -7.2699  -25.1272   30.6680 H   0  0  0  0  0  0  0  0  0  0  0  0
   -4.7714  -25.3923   29.3684 H   0  0  0  0  0  0  0  0  0  0  0  0
   -4.4407  -25.7665   26.8164 H   0  0  0  0  0  0  0  0  0  0  0  0
   -3.0193  -23.4946   27.7127 H   0  0  0  0  0  0  0  0  0  0  0  0
   -4.5883  -20.9045   25.1443 H   0  0  0  0  0  0  0  0  0  0  0  0
   -6.1245  -17.9686   28.4310 H   0  0  0  0  0  0  0  0  0  0  0  0
   -4.2027  -18.4826   27.8655 H   0  0  0  0  0  0  0  0  0  0  0  0
   -3.8517  -16.4575   28.2173 H   0  0  0  0  0  0  0  0  0  0  0  0
   -5.4015  -16.2231   29.4799 H   0  0  0  0  0  0  0  0  0  0  0  0
   -3.5225  -14.7443   30.6883 H   0  0  0  0  0  0  0  0  0  0  0  0
   -2.4082  -12.5256   30.9201 H   0  0  0  0  0  0  0  0  0  0  0  0
   -1.8038  -10.0568   31.9993 H   0  0  0  0  0  0  0  0  0  0  0  0
   -1.1902   -8.0259   32.3803 H   0  0  0  0  0  0  0  0  0  0  0  0
    0.0465   -5.8121   31.0976 H   0  0  0  0  0  0  0  0  0  0  0  0
    1.5457   -5.4948   29.0987 H   0  0  0  0  0  0  0  0  0  0  0  0
    1.5598   -7.8200   27.7991 H   0  0  0  0  0  0  0  0  0  0  0  0
   -0.5829  -10.3135   28.1381 H   0  0  0  0  0  0  0  0  0  0  0  0
  1  2  1  0
  2  3  2  0
  3  4  1  0
  4  5  2  0
  5  6  1  0
  6  7  1  0
  7  8  2  0
  8  9  1  0
  9 10  1  0
 10 11  1  0
 11 12  1  0
 12 13  2  0
 12 14  1  0
 14 15  1  0
 15 16  2  0
 16 17  1  0
 17 18  2  0
 18 19  1  0
 19 20  1  0
 20 21  2  0
 21 22  1  0
 22 23  2  0
  8 24  1  0
 24 25  2  0
 25  2  1  0
 25  6  1  0
 23 15  1  0
 22 18  1  0
  1 26  1  0
  1 27  1  0
  1 28  1  0
  3 29  1  0
  4 30  1  0
  5 31  1  0
  7 32  1  0
  9 33  1  0
  9 34  1  0
 10 35  1  0
 10 36  1  0
 11 37  1  0
 14 38  1  0
 16 39  1  0
 17 40  1  0
 19 41  1  0
 20 42  1  0
 21 43  1  0
 23 44  1  0
M  END
>  <Energy>  (708) 
1108.3024203288282

>  <compound_id>  (708) 
5679

>  <target_id>  (708) 
1

>  <reference_id>  (708) 
40

>  <inspiration_ids>  (708) 
[45, 40]

>  <energy_score>  (708) 
1087.9995970789944

>  <distance_score>  (708) 
4.874982092095946

>  <path>  (708) 
/opt/xchem-fragalysis-2/maxwin/BulkDock/SCRATCH/511018/C5679-P40/C5679-P40.minimised.mol

>  <scratch_subdir>  (708) 
/opt/xchem-fragalysis-2/maxwin/BulkDock/SCRATCH/511018/C5679-P40

>  <fragmenstein_runtime>  (708) 
20.87527847290039

>  <fragmenstein_outcome>  (708) 
too moved

>  <fragmenstein_mode>  (708) 
expansion

>  <fragmenstein_error>  (708) 


$$$$
C5680-P45
     RDKit          3D

 39 42  0  0  0  0  0  0  0  0999 V2000
   -8.5640  -23.6419   27.9319 C   0  0  0  0  0  0  0  0  0  0  0  0
   -7.0983  -23.2813   27.9282 C   0  0  0  0  0  0  0  0  0  0  0  0
   -6.4806  -22.0696   28.0901 C   0  0  0  0  0  0  0  0  0  0  0  0
   -5.1327  -21.7117   29.2940 C   0  0  0  0  0  0  0  0  0  0  0  0
   -5.3236  -20.0534   30.6608 N   0  0  0  0  0  0  0  0  0  0  0  0
   -5.9953  -18.1419   30.0787 C   0  0  0  0  0  0  0  0  0  0  0  0
   -6.2680  -17.7008   29.0063 O   0  0  0  0  0  0  0  0  0  0  0  0
   -6.0599  -16.7125   31.5338 C   0  0  0  0  0  0  0  0  0  0  0  0
   -6.5148  -14.7766   31.2426 C   0  0  0  0  0  0  0  0  0  0  0  0
   -7.8041  -14.4258   32.1366 C   0  0  0  0  0  0  0  0  0  0  0  0
   -8.6866  -13.3607   31.9632 C   0  0  0  0  0  0  0  0  0  0  0  0
   -8.2349  -12.4085   31.0838 C   0  0  0  0  0  0  0  0  0  0  0  0
   -8.7692  -11.1782   30.7365 N   0  0  0  0  0  0  0  0  0  0  0  0
   -7.7417  -10.2812   30.8396 C   0  0  0  0  0  0  0  0  0  0  0  0
   -6.6458  -11.0931   31.0026 C   0  0  0  0  0  0  0  0  0  0  0  0
   -6.9362  -12.4222   30.5946 C   0  0  0  0  0  0  0  0  0  0  0  0
   -6.1417  -13.6405   30.4843 C   0  0  0  0  0  0  0  0  0  0  0  0
   -4.6415  -23.1722   29.0424 C   0  0  0  0  0  0  0  0  0  0  0  0
   -4.9873  -24.1654   28.0863 N   0  0  0  0  0  0  0  0  0  0  0  0
   -4.3321  -25.2514   27.5498 C   0  0  0  0  0  0  0  0  0  0  0  0
   -5.2665  -26.0499   26.9428 C   0  0  0  0  0  0  0  0  0  0  0  0
   -6.4787  -25.4601   27.0176 N   0  0  0  0  0  0  0  0  0  0  0  0
   -6.2415  -24.3165   27.6138 C   0  0  0  0  0  0  0  0  0  0  0  0
   -8.7301  -24.4275   28.6816 H   0  0  0  0  0  0  0  0  0  0  0  0
   -9.2225  -22.8211   28.2109 H   0  0  0  0  0  0  0  0  0  0  0  0
   -8.8796  -24.0834   26.9824 H   0  0  0  0  0  0  0  0  0  0  0  0
   -7.1556  -21.2563   27.8742 H   0  0  0  0  0  0  0  0  0  0  0  0
   -5.0883  -20.1119   31.6714 H   0  0  0  0  0  0  0  0  0  0  0  0
   -6.8205  -17.1620   32.2297 H   0  0  0  0  0  0  0  0  0  0  0  0
   -5.3215  -16.6282   32.3535 H   0  0  0  0  0  0  0  0  0  0  0  0
   -8.1042  -15.1786   32.8788 H   0  0  0  0  0  0  0  0  0  0  0  0
   -9.6117  -13.2720   32.5162 H   0  0  0  0  0  0  0  0  0  0  0  0
   -9.7392  -10.9300   30.8601 H   0  0  0  0  0  0  0  0  0  0  0  0
   -7.9119   -9.2277   31.0119 H   0  0  0  0  0  0  0  0  0  0  0  0
   -5.7984  -10.8166   31.5953 H   0  0  0  0  0  0  0  0  0  0  0  0
   -5.1291  -13.4757   30.1723 H   0  0  0  0  0  0  0  0  0  0  0  0
   -3.9258  -23.5655   29.7465 H   0  0  0  0  0  0  0  0  0  0  0  0
   -3.2698  -25.3948   27.5617 H   0  0  0  0  0  0  0  0  0  0  0  0
   -5.1086  -26.9972   26.4416 H   0  0  0  0  0  0  0  0  0  0  0  0
  1  2  1  0
  2  3  2  0
  3  4  1  0
  4  5  1  0
  5  6  1  0
  6  7  2  0
  6  8  1  0
  8  9  1  0
  9 10  2  0
 10 11  1  0
 11 12  2  0
 12 13  1  0
 13 14  1  0
 14 15  2  0
 15 16  1  0
 16 17  2  0
  4 18  2  0
 18 19  1  0
 19 20  1  0
 20 21  2  0
 21 22  1  0
 22 23  2  0
 23  2  1  0
 17  9  1  0
 23 19  1  0
 16 12  1  0
  1 24  1  0
  1 25  1  0
  1 26  1  0
  3 27  1  0
  5 28  1  0
  8 29  1  0
  8 30  1  0
 10 31  1  0
 11 32  1  0
 13 33  1  0
 14 34  1  0
 15 35  1  0
 17 36  1  0
 18 37  1  0
 20 38  1  0
 21 39  1  0
M  END
>  <Energy>  (709) 
863.54674733023501

>  <compound_id>  (709) 
5680

>  <target_id>  (709) 
1

>  <reference_id>  (709) 
45

>  <inspiration_ids>  (709) 
[45, 40]

>  <energy_score>  (709) 
782.2694711746428

>  <distance_score>  (709) 
8.977939590909916

>  <path>  (709) 
/opt/xchem-fragalysis-2/maxwin/BulkDock/SCRATCH/511018/C5680-P45/C5680-P45.minimised.mol

>  <scratch_subdir>  (709) 
/opt/xchem-fragalysis-2/maxwin/BulkDock/SCRATCH/511018/C5680-P45

>  <fragmenstein_runtime>  (709) 
11.039117336273193

>  <fragmenstein_outcome>  (709) 
too moved

>  <fragmenstein_mode>  (709) 
expansion

>  <fragmenstein_error>  (709) 


$$$$
C5680-P40
     RDKit          3D

 39 42  0  0  0  0  0  0  0  0999 V2000
   -6.7789  -22.1784   27.3336 C   0  0  0  0  0  0  0  0  0  0  0  0
   -5.1969  -21.7387   27.1254 C   0  0  0  0  0  0  0  0  0  0  0  0
   -4.4225  -20.5123   26.0224 C   0  0  0  0  0  0  0  0  0  0  0  0
   -2.7870  -19.3474   26.8177 C   0  0  0  0  0  0  0  0  0  0  0  0
   -2.5195  -17.5089   26.3070 N   0  0  0  0  0  0  0  0  0  0  0  0
   -2.0003  -16.0422   27.2560 C   0  0  0  0  0  0  0  0  0  0  0  0
   -1.6503  -16.0917   28.3774 O   0  0  0  0  0  0  0  0  0  0  0  0
   -2.1052  -14.0951   26.6655 C   0  0  0  0  0  0  0  0  0  0  0  0
   -2.6821  -12.2815   27.5406 C   0  0  0  0  0  0  0  0  0  0  0  0
   -2.5750  -12.1162   29.0851 C   0  0  0  0  0  0  0  0  0  0  0  0
   -1.5930  -11.0276   30.0519 C   0  0  0  0  0  0  0  0  0  0  0  0
   -0.9093   -9.9077   29.9156 C   0  0  0  0  0  0  0  0  0  0  0  0
   -0.5941   -8.8512   30.7172 N   0  0  0  0  0  0  0  0  0  0  0  0
   -0.0611   -7.9052   29.9281 C   0  0  0  0  0  0  0  0  0  0  0  0
   -0.1495   -8.4594   28.6731 C   0  0  0  0  0  0  0  0  0  0  0  0
   -0.8022   -9.8895   28.6015 C   0  0  0  0  0  0  0  0  0  0  0  0
   -1.7879  -11.0957   27.5765 C   0  0  0  0  0  0  0  0  0  0  0  0
   -1.9074  -20.1177   28.0919 C   0  0  0  0  0  0  0  0  0  0  0  0
   -2.8982  -20.9249   29.5104 N   0  0  0  0  0  0  0  0  0  0  0  0
   -2.7554  -21.1598   30.9255 C   0  0  0  0  0  0  0  0  0  0  0  0
   -3.7656  -21.9103   31.3536 C   0  0  0  0  0  0  0  0  0  0  0  0
   -4.3981  -22.7087   29.9591 N   0  0  0  0  0  0  0  0  0  0  0  0
   -4.4713  -22.0862   28.8949 C   0  0  0  0  0  0  0  0  0  0  0  0
   -7.1491  -22.7648   26.4998 H   0  0  0  0  0  0  0  0  0  0  0  0
   -7.4591  -21.3467   27.4746 H   0  0  0  0  0  0  0  0  0  0  0  0
   -6.9357  -22.7127   28.2618 H   0  0  0  0  0  0  0  0  0  0  0  0
   -4.7668  -20.1126   25.0774 H   0  0  0  0  0  0  0  0  0  0  0  0
   -2.8481  -17.2222   25.4193 H   0  0  0  0  0  0  0  0  0  0  0  0
   -2.2701  -13.9613   25.6076 H   0  0  0  0  0  0  0  0  0  0  0  0
   -1.0125  -14.0274   26.4803 H   0  0  0  0  0  0  0  0  0  0  0  0
   -2.8997  -12.9769   29.6876 H   0  0  0  0  0  0  0  0  0  0  0  0
   -1.1254  -11.3458   30.9956 H   0  0  0  0  0  0  0  0  0  0  0  0
   -0.7345   -8.8089   31.7205 H   0  0  0  0  0  0  0  0  0  0  0  0
    0.2843   -6.9471   30.2942 H   0  0  0  0  0  0  0  0  0  0  0  0
    0.1607   -7.8259   27.8837 H   0  0  0  0  0  0  0  0  0  0  0  0
   -2.0669  -10.7264   26.5548 H   0  0  0  0  0  0  0  0  0  0  0  0
   -1.0937  -19.7137   28.6316 H   0  0  0  0  0  0  0  0  0  0  0  0
   -2.0321  -20.6168   31.4859 H   0  0  0  0  0  0  0  0  0  0  0  0
   -4.1052  -22.3443   32.2950 H   0  0  0  0  0  0  0  0  0  0  0  0
  1  2  1  0
  2  3  2  0
  3  4  1  0
  4  5  1  0
  5  6  1  0
  6  7  2  0
  6  8  1  0
  8  9  1  0
  9 10  2  0
 10 11  1  0
 11 12  2  0
 12 13  1  0
 13 14  1  0
 14 15  2  0
 15 16  1  0
 16 17  2  0
  4 18  2  0
 18 19  1  0
 19 20  1  0
 20 21  2  0
 21 22  1  0
 22 23  2  0
 23  2  1  0
 17  9  1  0
 23 19  1  0
 16 12  1  0
  1 24  1  0
  1 25  1  0
  1 26  1  0
  3 27  1  0
  5 28  1  0
  8 29  1  0
  8 30  1  0
 10 31  1  0
 11 32  1  0
 13 33  1  0
 14 34  1  0
 15 35  1  0
 17 36  1  0
 18 37  1  0
 20 38  1  0
 21 39  1  0
M  END
>  <Energy>  (710) 
1337.1913660925104

>  <compound_id>  (710) 
5680

>  <target_id>  (710) 
1

>  <reference_id>  (710) 
40

>  <inspiration_ids>  (710) 
[45, 40]

>  <energy_score>  (710) 
1255.9140899369572

>  <distance_score>  (710) 
7.238698179092672

>  <path>  (710) 
/opt/xchem-fragalysis-2/maxwin/BulkDock/SCRATCH/511018/C5680-P40/C5680-P40.minimised.mol

>  <scratch_subdir>  (710) 
/opt/xchem-fragalysis-2/maxwin/BulkDock/SCRATCH/511018/C5680-P40

>  <fragmenstein_runtime>  (710) 
17.70835828781128

>  <fragmenstein_outcome>  (710) 
too moved

>  <fragmenstein_mode>  (710) 
expansion

>  <fragmenstein_error>  (710) 


$$$$
C5681-P45
     RDKit          3D

 39 42  0  0  0  0  0  0  0  0999 V2000
   -9.7806  -22.1069   28.2328 C   0  0  0  0  0  0  0  0  0  0  0  0
   -8.0424  -22.2466   27.8916 C   0  0  0  0  0  0  0  0  0  0  0  0
   -7.6634  -23.5438   27.8792 C   0  0  0  0  0  0  0  0  0  0  0  0
   -6.3157  -23.9229   27.6711 C   0  0  0  0  0  0  0  0  0  0  0  0
   -5.3954  -22.9855   27.4441 C   0  0  0  0  0  0  0  0  0  0  0  0
   -5.6628  -21.5938   27.3201 N   0  0  0  0  0  0  0  0  0  0  0  0
   -5.2451  -20.1041   26.3876 C   0  0  0  0  0  0  0  0  0  0  0  0
   -5.0051  -18.6578   27.5577 C   0  0  0  0  0  0  0  0  0  0  0  0
   -3.3780  -17.2414   27.7381 C   0  0  0  0  0  0  0  0  0  0  0  0
   -2.5642  -15.3043   28.1457 C   0  0  0  0  0  0  0  0  0  0  0  0
   -1.9740  -14.9146   27.1871 O   0  0  0  0  0  0  0  0  0  0  0  0
   -2.8046  -14.0476   29.6104 N   0  0  0  0  0  0  0  0  0  0  0  0
   -2.4137  -12.1404   29.7627 C   0  0  0  0  0  0  0  0  0  0  0  0
   -2.3595  -11.1680   30.7695 C   0  0  0  0  0  0  0  0  0  0  0  0
   -1.9825   -9.6834   31.5167 C   0  0  0  0  0  0  0  0  0  0  0  0
   -1.0992   -8.8661   30.7934 C   0  0  0  0  0  0  0  0  0  0  0  0
   -0.6766   -7.5672   30.8642 N   0  0  0  0  0  0  0  0  0  0  0  0
   -0.3910   -7.1416   29.5859 C   0  0  0  0  0  0  0  0  0  0  0  0
   -0.3450   -8.2551   28.7585 C   0  0  0  0  0  0  0  0  0  0  0  0
   -0.7862   -9.3999   29.5234 C   0  0  0  0  0  0  0  0  0  0  0  0
   -1.5760  -10.8008   29.0964 C   0  0  0  0  0  0  0  0  0  0  0  0
   -6.3718  -19.7540   26.8568 N   0  0  0  0  0  0  0  0  0  0  0  0
   -6.9390  -21.1424   27.5609 C   0  0  0  0  0  0  0  0  0  0  0  0
  -10.2890  -22.9981   27.8342 H   0  0  0  0  0  0  0  0  0  0  0  0
  -10.1851  -21.1886   27.7754 H   0  0  0  0  0  0  0  0  0  0  0  0
  -10.1440  -22.0112   29.2515 H   0  0  0  0  0  0  0  0  0  0  0  0
   -8.3776  -24.3413   28.0651 H   0  0  0  0  0  0  0  0  0  0  0  0
   -6.0421  -24.9704   27.7072 H   0  0  0  0  0  0  0  0  0  0  0  0
   -4.4129  -23.3936   27.4324 H   0  0  0  0  0  0  0  0  0  0  0  0
   -4.5975  -20.4420   25.5671 H   0  0  0  0  0  0  0  0  0  0  0  0
   -3.8368  -16.6581   28.5702 H   0  0  0  0  0  0  0  0  0  0  0  0
   -2.4671  -17.7818   27.5069 H   0  0  0  0  0  0  0  0  0  0  0  0
   -3.3687  -14.4647   30.2874 H   0  0  0  0  0  0  0  0  0  0  0  0
   -1.2515  -11.4830   31.0046 H   0  0  0  0  0  0  0  0  0  0  0  0
   -2.5438   -9.3635   32.3889 H   0  0  0  0  0  0  0  0  0  0  0  0
   -0.7288   -6.9696   31.6796 H   0  0  0  0  0  0  0  0  0  0  0  0
   -0.1528   -6.1044   29.3933 H   0  0  0  0  0  0  0  0  0  0  0  0
   -0.1086   -8.2244   27.7046 H   0  0  0  0  0  0  0  0  0  0  0  0
   -1.3679  -10.6948   28.0422 H   0  0  0  0  0  0  0  0  0  0  0  0
  1  2  1  0
  2  3  2  0
  3  4  1  0
  4  5  2  0
  5  6  1  0
  6  7  1  0
  7  8  2  0
  8  9  1  0
  9 10  1  0
 10 11  2  0
 10 12  1  0
 12 13  1  0
 13 14  2  0
 14 15  1  0
 15 16  2  0
 16 17  1  0
 17 18  1  0
 18 19  2  0
 19 20  1  0
 20 21  2  0
  8 22  1  0
 22 23  2  0
 23  2  1  0
 23  6  1  0
 21 13  1  0
 20 16  1  0
  1 24  1  0
  1 25  1  0
  1 26  1  0
  3 27  1  0
  4 28  1  0
  5 29  1  0
  7 30  1  0
  9 31  1  0
  9 32  1  0
 12 33  1  0
 14 34  1  0
 15 35  1  0
 17 36  1  0
 18 37  1  0
 19 38  1  0
 21 39  1  0
M  END
>  <Energy>  (711) 
1371.0178553990663

>  <compound_id>  (711) 
5681

>  <target_id>  (711) 
1

>  <reference_id>  (711) 
45

>  <inspiration_ids>  (711) 
[45, 40]

>  <energy_score>  (711) 
1280.9400067125512

>  <distance_score>  (711) 
5.845338319248639

>  <path>  (711) 
/opt/xchem-fragalysis-2/maxwin/BulkDock/SCRATCH/511018/C5681-P45/C5681-P45.minimised.mol

>  <scratch_subdir>  (711) 
/opt/xchem-fragalysis-2/maxwin/BulkDock/SCRATCH/511018/C5681-P45

>  <fragmenstein_runtime>  (711) 
17.66269278526306

>  <fragmenstein_outcome>  (711) 
too moved

>  <fragmenstein_mode>  (711) 
expansion

>  <fragmenstein_error>  (711) 


$$$$
C5681-P40
     RDKit          3D

 39 42  0  0  0  0  0  0  0  0999 V2000
   -6.1921  -24.8122   30.5829 C   0  0  0  0  0  0  0  0  0  0  0  0
   -5.5706  -23.7842   29.1062 C   0  0  0  0  0  0  0  0  0  0  0  0
   -4.6789  -24.6393   28.6973 C   0  0  0  0  0  0  0  0  0  0  0  0
   -4.1582  -24.8104   27.2110 C   0  0  0  0  0  0  0  0  0  0  0  0
   -3.9721  -23.5151   27.4097 C   0  0  0  0  0  0  0  0  0  0  0  0
   -5.0411  -22.2945   27.0384 N   0  0  0  0  0  0  0  0  0  0  0  0
   -4.9919  -20.9304   26.0747 C   0  0  0  0  0  0  0  0  0  0  0  0
   -5.8335  -19.7271   26.8791 C   0  0  0  0  0  0  0  0  0  0  0  0
   -4.7909  -18.1198   27.7350 C   0  0  0  0  0  0  0  0  0  0  0  0
   -4.2267  -16.3317   28.6954 C   0  0  0  0  0  0  0  0  0  0  0  0
   -5.0539  -16.0757   29.6097 O   0  0  0  0  0  0  0  0  0  0  0  0
   -2.7892  -15.0514   28.2391 N   0  0  0  0  0  0  0  0  0  0  0  0
   -2.4093  -13.2007   28.8720 C   0  0  0  0  0  0  0  0  0  0  0  0
   -2.5327  -12.1053   29.6358 C   0  0  0  0  0  0  0  0  0  0  0  0
   -1.1895  -11.3657   30.4761 C   0  0  0  0  0  0  0  0  0  0  0  0
   -1.0876  -10.0901   30.2990 C   0  0  0  0  0  0  0  0  0  0  0  0
   -0.7214   -8.9657   30.9608 N   0  0  0  0  0  0  0  0  0  0  0  0
   -0.2800   -8.0879   30.0369 C   0  0  0  0  0  0  0  0  0  0  0  0
   -0.4771   -8.7341   28.8321 C   0  0  0  0  0  0  0  0  0  0  0  0
   -1.1208  -10.1783   28.9270 C   0  0  0  0  0  0  0  0  0  0  0  0
   -2.1630  -11.5783   28.2156 C   0  0  0  0  0  0  0  0  0  0  0  0
   -6.6491  -21.2488   27.6183 N   0  0  0  0  0  0  0  0  0  0  0  0
   -5.9229  -22.2946   28.0925 C   0  0  0  0  0  0  0  0  0  0  0  0
   -7.2632  -25.1169   30.6653 H   0  0  0  0  0  0  0  0  0  0  0  0
   -5.8812  -25.8665   30.4651 H   0  0  0  0  0  0  0  0  0  0  0  0
   -5.7904  -24.4360   31.5404 H   0  0  0  0  0  0  0  0  0  0  0  0
   -4.7560  -25.3892   29.3737 H   0  0  0  0  0  0  0  0  0  0  0  0
   -3.5226  -25.6452   26.9353 H   0  0  0  0  0  0  0  0  0  0  0  0
   -2.9023  -23.5075   27.6700 H   0  0  0  0  0  0  0  0  0  0  0  0
   -4.5880  -20.9213   25.0664 H   0  0  0  0  0  0  0  0  0  0  0  0
   -5.7914  -18.0510   28.2223 H   0  0  0  0  0  0  0  0  0  0  0  0
   -3.7835  -18.5259   27.8836 H   0  0  0  0  0  0  0  0  0  0  0  0
   -2.1787  -15.4728   27.5390 H   0  0  0  0  0  0  0  0  0  0  0  0
   -3.5146  -11.6408   29.6350 H   0  0  0  0  0  0  0  0  0  0  0  0
   -0.2442  -11.8487   30.6499 H   0  0  0  0  0  0  0  0  0  0  0  0
   -0.6620   -8.8701   31.9681 H   0  0  0  0  0  0  0  0  0  0  0  0
    0.0728   -7.0973   30.2937 H   0  0  0  0  0  0  0  0  0  0  0  0
   -0.3764   -8.0858   27.9901 H   0  0  0  0  0  0  0  0  0  0  0  0
   -2.3191  -11.5271   27.1168 H   0  0  0  0  0  0  0  0  0  0  0  0
  1  2  1  0
  2  3  2  0
  3  4  1  0
  4  5  2  0
  5  6  1  0
  6  7  1  0
  7  8  2  0
  8  9  1  0
  9 10  1  0
 10 11  2  0
 10 12  1  0
 12 13  1  0
 13 14  2  0
 14 15  1  0
 15 16  2  0
 16 17  1  0
 17 18  1  0
 18 19  2  0
 19 20  1  0
 20 21  2  0
  8 22  1  0
 22 23  2  0
 23  2  1  0
 23  6  1  0
 21 13  1  0
 20 16  1  0
  1 24  1  0
  1 25  1  0
  1 26  1  0
  3 27  1  0
  4 28  1  0
  5 29  1  0
  7 30  1  0
  9 31  1  0
  9 32  1  0
 12 33  1  0
 14 34  1  0
 15 35  1  0
 17 36  1  0
 18 37  1  0
 19 38  1  0
 21 39  1  0
M  END
>  <Energy>  (712) 
1482.5485810828566

>  <compound_id>  (712) 
5681

>  <target_id>  (712) 
1

>  <reference_id>  (712) 
40

>  <inspiration_ids>  (712) 
[45, 40]

>  <energy_score>  (712) 
1392.4707323963676

>  <distance_score>  (712) 
6.3228826269288545

>  <path>  (712) 
/opt/xchem-fragalysis-2/maxwin/BulkDock/SCRATCH/511018/C5681-P40/C5681-P40.minimised.mol

>  <scratch_subdir>  (712) 
/opt/xchem-fragalysis-2/maxwin/BulkDock/SCRATCH/511018/C5681-P40

>  <fragmenstein_runtime>  (712) 
20.377841234207153

>  <fragmenstein_outcome>  (712) 
too moved

>  <fragmenstein_mode>  (712) 
expansion

>  <fragmenstein_error>  (712) 


$$$$
C5682-P45
     RDKit          3D

 43 46  0  0  0  0  0  0  0  0999 V2000
   -8.9784  -23.2416   28.0624 C   0  0  0  0  0  0  0  0  0  0  0  0
   -7.6493  -22.6119   27.5724 C   0  0  0  0  0  0  0  0  0  0  0  0
   -6.9330  -23.6217   27.0414 C   0  0  0  0  0  0  0  0  0  0  0  0
   -5.5805  -23.5343   27.3514 C   0  0  0  0  0  0  0  0  0  0  0  0
   -5.1644  -22.3255   27.7295 C   0  0  0  0  0  0  0  0  0  0  0  0
   -5.6035  -20.8072   27.3922 N   0  0  0  0  0  0  0  0  0  0  0  0
   -5.0795  -18.8785   27.5290 C   0  0  0  0  0  0  0  0  0  0  0  0
   -3.4077  -17.5546   27.5945 C   0  0  0  0  0  0  0  0  0  0  0  0
   -2.4517  -15.8270   27.9162 N   0  0  0  0  0  0  0  0  0  0  0  0
   -2.2791  -14.5568   29.3742 C   0  0  0  0  0  0  0  0  0  0  0  0
   -2.7417  -12.5627   29.7059 C   0  0  0  0  0  0  0  0  0  0  0  0
   -1.8552  -10.9340   30.3350 C   0  0  0  0  0  0  0  0  0  0  0  0
   -2.2885  -10.0146   31.4438 C   0  0  0  0  0  0  0  0  0  0  0  0
   -1.7719   -8.7188   31.8819 C   0  0  0  0  0  0  0  0  0  0  0  0
   -0.9657   -8.0477   30.9621 C   0  0  0  0  0  0  0  0  0  0  0  0
   -0.4913   -6.7574   30.9289 N   0  0  0  0  0  0  0  0  0  0  0  0
   -0.2150   -6.4112   29.6291 C   0  0  0  0  0  0  0  0  0  0  0  0
   -0.2990   -7.5597   28.8704 C   0  0  0  0  0  0  0  0  0  0  0  0
   -0.6026   -8.6569   29.7562 C   0  0  0  0  0  0  0  0  0  0  0  0
   -0.8881  -10.0960   29.5332 C   0  0  0  0  0  0  0  0  0  0  0  0
   -5.5945  -19.7139   26.3668 C   0  0  0  0  0  0  0  0  0  0  0  0
   -6.9543  -20.0045   26.8282 N   0  0  0  0  0  0  0  0  0  0  0  0
   -7.0402  -21.1559   27.5513 C   0  0  0  0  0  0  0  0  0  0  0  0
   -8.7675  -24.0151   28.8102 H   0  0  0  0  0  0  0  0  0  0  0  0
   -9.4858  -23.8201   27.2740 H   0  0  0  0  0  0  0  0  0  0  0  0
   -9.7083  -22.5108   28.4218 H   0  0  0  0  0  0  0  0  0  0  0  0
   -7.3252  -24.6290   26.9190 H   0  0  0  0  0  0  0  0  0  0  0  0
   -5.1206  -24.4287   27.7688 H   0  0  0  0  0  0  0  0  0  0  0  0
   -4.7266  -22.4487   28.6984 H   0  0  0  0  0  0  0  0  0  0  0  0
   -3.8333  -16.7988   28.2393 H   0  0  0  0  0  0  0  0  0  0  0  0
   -2.4812  -18.0539   27.3249 H   0  0  0  0  0  0  0  0  0  0  0  0
   -1.4982  -16.1590   27.8386 H   0  0  0  0  0  0  0  0  0  0  0  0
   -2.9470  -15.0668   30.0557 H   0  0  0  0  0  0  0  0  0  0  0  0
   -1.2979  -14.8317   29.7726 H   0  0  0  0  0  0  0  0  0  0  0  0
   -3.7345  -12.5396   30.1781 H   0  0  0  0  0  0  0  0  0  0  0  0
   -3.0877  -12.1549   28.7579 H   0  0  0  0  0  0  0  0  0  0  0  0
   -3.2565  -10.1714   31.9080 H   0  0  0  0  0  0  0  0  0  0  0  0
   -2.1965   -8.2161   32.7446 H   0  0  0  0  0  0  0  0  0  0  0  0
   -0.4950   -6.1221   31.7154 H   0  0  0  0  0  0  0  0  0  0  0  0
    0.0467   -5.3946   29.3685 H   0  0  0  0  0  0  0  0  0  0  0  0
   -0.1016   -7.6286   27.8101 H   0  0  0  0  0  0  0  0  0  0  0  0
   -0.5872  -10.3690   28.5317 H   0  0  0  0  0  0  0  0  0  0  0  0
   -5.1215  -19.8994   25.3879 H   0  0  0  0  0  0  0  0  0  0  0  0
  1  2  1  0
  2  3  2  0
  3  4  1  0
  4  5  2  0
  5  6  1  0
  6  7  1  0
  7  8  1  0
  8  9  1  0
  9 10  1  0
 10 11  1  0
 11 12  1  0
 12 13  2  0
 13 14  1  0
 14 15  2  0
 15 16  1  0
 16 17  1  0
 17 18  2  0
 18 19  1  0
 19 20  2  0
  7 21  2  0
 21 22  1  0
 22 23  2  0
 23  2  1  0
 23  6  1  0
 20 12  1  0
 19 15  1  0
  1 24  1  0
  1 25  1  0
  1 26  1  0
  3 27  1  0
  4 28  1  0
  5 29  1  0
  8 30  1  0
  8 31  1  0
  9 32  1  0
 10 33  1  0
 10 34  1  0
 11 35  1  0
 11 36  1  0
 13 37  1  0
 14 38  1  0
 16 39  1  0
 17 40  1  0
 18 41  1  0
 20 42  1  0
 21 43  1  0
M  END
>  <Energy>  (713) 
1056.5806209142254

>  <compound_id>  (713) 
5682

>  <target_id>  (713) 
1

>  <reference_id>  (713) 
45

>  <inspiration_ids>  (713) 
[45, 40]

>  <energy_score>  (713) 
987.5764575471031

>  <distance_score>  (713) 
5.3057334008048205

>  <path>  (713) 
/opt/xchem-fragalysis-2/maxwin/BulkDock/SCRATCH/511018/C5682-P45/C5682-P45.minimised.mol

>  <scratch_subdir>  (713) 
/opt/xchem-fragalysis-2/maxwin/BulkDock/SCRATCH/511018/C5682-P45

>  <fragmenstein_runtime>  (713) 
14.547418594360352

>  <fragmenstein_outcome>  (713) 
too moved

>  <fragmenstein_mode>  (713) 
expansion

>  <fragmenstein_error>  (713) 


$$$$
C5682-P40
     RDKit          3D

 43 46  0  0  0  0  0  0  0  0999 V2000
   -7.9885  -24.6488   30.2586 C   0  0  0  0  0  0  0  0  0  0  0  0
   -7.0090  -23.2804   29.0027 C   0  0  0  0  0  0  0  0  0  0  0  0
   -5.5702  -23.7486   29.0567 C   0  0  0  0  0  0  0  0  0  0  0  0
   -4.7269  -22.8245   28.4091 C   0  0  0  0  0  0  0  0  0  0  0  0
   -5.1663  -22.1261   27.2460 C   0  0  0  0  0  0  0  0  0  0  0  0
   -5.8829  -20.9456   27.4732 N   0  0  0  0  0  0  0  0  0  0  0  0
   -5.5373  -18.9975   27.6425 C   0  0  0  0  0  0  0  0  0  0  0  0
   -6.1831  -17.5119   28.9198 C   0  0  0  0  0  0  0  0  0  0  0  0
   -5.6518  -15.9652   30.0170 N   0  0  0  0  0  0  0  0  0  0  0  0
   -6.2367  -14.2793   30.6621 C   0  0  0  0  0  0  0  0  0  0  0  0
   -6.4764  -12.7172   31.8529 C   0  0  0  0  0  0  0  0  0  0  0  0
   -7.1351  -11.0638   31.8404 C   0  0  0  0  0  0  0  0  0  0  0  0
   -7.7321  -10.8684   33.0295 C   0  0  0  0  0  0  0  0  0  0  0  0
   -6.8005  -10.3677   33.8691 C   0  0  0  0  0  0  0  0  0  0  0  0
   -5.6488   -9.6193   33.3789 C   0  0  0  0  0  0  0  0  0  0  0  0
   -4.3589   -9.0655   34.1413 N   0  0  0  0  0  0  0  0  0  0  0  0
   -3.3188   -8.8340   33.2039 C   0  0  0  0  0  0  0  0  0  0  0  0
   -4.0950   -8.6179   32.0082 C   0  0  0  0  0  0  0  0  0  0  0  0
   -5.6185   -9.1089   32.1176 C   0  0  0  0  0  0  0  0  0  0  0  0
   -6.5940   -9.8297   31.3234 C   0  0  0  0  0  0  0  0  0  0  0  0
   -6.2873  -19.6638   26.6893 C   0  0  0  0  0  0  0  0  0  0  0  0
   -7.6186  -20.8524   27.2895 N   0  0  0  0  0  0  0  0  0  0  0  0
   -7.1140  -21.8750   27.9063 C   0  0  0  0  0  0  0  0  0  0  0  0
   -8.6918  -24.8774   29.4036 H   0  0  0  0  0  0  0  0  0  0  0  0
   -8.0587  -25.7819   30.2812 H   0  0  0  0  0  0  0  0  0  0  0  0
   -7.0045  -25.0658   30.6948 H   0  0  0  0  0  0  0  0  0  0  0  0
   -5.2471  -24.6938   29.4459 H   0  0  0  0  0  0  0  0  0  0  0  0
   -3.9883  -23.5820   28.1131 H   0  0  0  0  0  0  0  0  0  0  0  0
   -5.6369  -22.5781   26.3695 H   0  0  0  0  0  0  0  0  0  0  0  0
   -7.0009  -17.0579   28.3034 H   0  0  0  0  0  0  0  0  0  0  0  0
   -5.2022  -16.8972   28.9722 H   0  0  0  0  0  0  0  0  0  0  0  0
   -4.7170  -16.0946   30.4070 H   0  0  0  0  0  0  0  0  0  0  0  0
   -7.2261  -14.5215   31.0027 H   0  0  0  0  0  0  0  0  0  0  0  0
   -5.6390  -14.6836   31.4788 H   0  0  0  0  0  0  0  0  0  0  0  0
   -5.7732  -12.6054   32.6638 H   0  0  0  0  0  0  0  0  0  0  0  0
   -7.2433  -13.1067   32.5144 H   0  0  0  0  0  0  0  0  0  0  0  0
   -8.4804  -11.5300   33.4501 H   0  0  0  0  0  0  0  0  0  0  0  0
   -6.9438  -10.5235   34.9378 H   0  0  0  0  0  0  0  0  0  0  0  0
   -4.2461   -9.2717   35.1208 H   0  0  0  0  0  0  0  0  0  0  0  0
   -2.2939   -8.6170   33.4721 H   0  0  0  0  0  0  0  0  0  0  0  0
   -3.5527   -8.3322   31.1503 H   0  0  0  0  0  0  0  0  0  0  0  0
   -6.7817   -9.5730   30.2828 H   0  0  0  0  0  0  0  0  0  0  0  0
   -5.6750  -19.7231   25.7690 H   0  0  0  0  0  0  0  0  0  0  0  0
  1  2  1  0
  2  3  2  0
  3  4  1  0
  4  5  2  0
  5  6  1  0
  6  7  1  0
  7  8  1  0
  8  9  1  0
  9 10  1  0
 10 11  1  0
 11 12  1  0
 12 13  2  0
 13 14  1  0
 14 15  2  0
 15 16  1  0
 16 17  1  0
 17 18  2  0
 18 19  1  0
 19 20  2  0
  7 21  2  0
 21 22  1  0
 22 23  2  0
 23  2  1  0
 23  6  1  0
 20 12  1  0
 19 15  1  0
  1 24  1  0
  1 25  1  0
  1 26  1  0
  3 27  1  0
  4 28  1  0
  5 29  1  0
  8 30  1  0
  8 31  1  0
  9 32  1  0
 10 33  1  0
 10 34  1  0
 11 35  1  0
 11 36  1  0
 13 37  1  0
 14 38  1  0
 16 39  1  0
 17 40  1  0
 18 41  1  0
 20 42  1  0
 21 43  1  0
M  END
>  <Energy>  (714) 
1372.5097278304904

>  <compound_id>  (714) 
5682

>  <target_id>  (714) 
1

>  <reference_id>  (714) 
40

>  <inspiration_ids>  (714) 
[45, 40]

>  <energy_score>  (714) 
1303.5055644633899

>  <distance_score>  (714) 
7.388513279112589

>  <path>  (714) 
/opt/xchem-fragalysis-2/maxwin/BulkDock/SCRATCH/511018/C5682-P40/C5682-P40.minimised.mol

>  <scratch_subdir>  (714) 
/opt/xchem-fragalysis-2/maxwin/BulkDock/SCRATCH/511018/C5682-P40

>  <fragmenstein_runtime>  (714) 
18.08034873008728

>  <fragmenstein_outcome>  (714) 
too moved

>  <fragmenstein_mode>  (714) 
expansion

>  <fragmenstein_error>  (714) 


$$$$
C5683-P45
     RDKit          3D

 38 41  0  0  0  0  0  0  0  0999 V2000
   -8.7029  -19.4788   28.2624 C   0  0  0  0  0  0  0  0  0  0  0  0
   -9.0519  -21.3349   27.8749 C   0  0  0  0  0  0  0  0  0  0  0  0
   -7.7923  -21.2913   27.4534 C   0  0  0  0  0  0  0  0  0  0  0  0
   -6.8199  -21.9315   27.9510 N   0  0  0  0  0  0  0  0  0  0  0  0
   -5.7138  -21.1515   27.6760 C   0  0  0  0  0  0  0  0  0  0  0  0
   -5.4966  -19.4998   27.2206 C   0  0  0  0  0  0  0  0  0  0  0  0
   -5.7520  -17.9840   28.8220 C   0  0  0  0  0  0  0  0  0  0  0  0
   -6.5769  -18.2828   29.7538 O   0  0  0  0  0  0  0  0  0  0  0  0
   -5.0250  -16.5624   29.2178 O   0  0  0  0  0  0  0  0  0  0  0  0
   -5.7794  -15.1894   30.0767 C   0  0  0  0  0  0  0  0  0  0  0  0
   -6.5220  -13.5334   29.9282 C   0  0  0  0  0  0  0  0  0  0  0  0
   -6.9727  -12.7858   31.0205 C   0  0  0  0  0  0  0  0  0  0  0  0
   -7.3609  -11.4231   30.9689 C   0  0  0  0  0  0  0  0  0  0  0  0
   -7.4861  -10.8425   29.7141 C   0  0  0  0  0  0  0  0  0  0  0  0
   -7.7284   -9.5448   29.3252 N   0  0  0  0  0  0  0  0  0  0  0  0
   -7.8660   -9.4804   27.9614 C   0  0  0  0  0  0  0  0  0  0  0  0
   -7.6883  -10.7548   27.4650 C   0  0  0  0  0  0  0  0  0  0  0  0
   -7.3911  -11.6141   28.5639 C   0  0  0  0  0  0  0  0  0  0  0  0
   -7.0096  -12.9775   28.6974 C   0  0  0  0  0  0  0  0  0  0  0  0
   -5.0909  -21.2395   26.4045 C   0  0  0  0  0  0  0  0  0  0  0  0
   -5.8567  -22.7994   26.4549 C   0  0  0  0  0  0  0  0  0  0  0  0
   -7.0336  -23.1483   27.4978 C   0  0  0  0  0  0  0  0  0  0  0  0
   -8.3878  -22.9001   27.9889 N   0  0  0  0  0  0  0  0  0  0  0  0
   -8.0790  -19.3277   29.0459 H   0  0  0  0  0  0  0  0  0  0  0  0
   -8.0923  -18.7110   27.7831 H   0  0  0  0  0  0  0  0  0  0  0  0
   -9.3302  -18.6985   27.8765 H   0  0  0  0  0  0  0  0  0  0  0  0
   -7.3165  -20.4630   27.0793 H   0  0  0  0  0  0  0  0  0  0  0  0
   -5.1442  -21.8116   28.4179 H   0  0  0  0  0  0  0  0  0  0  0  0
   -5.8793  -15.6302   31.0464 H   0  0  0  0  0  0  0  0  0  0  0  0
   -6.2641  -15.3123   29.1241 H   0  0  0  0  0  0  0  0  0  0  0  0
   -7.1473  -13.2600   31.9730 H   0  0  0  0  0  0  0  0  0  0  0  0
   -7.5880  -10.8761   31.8775 H   0  0  0  0  0  0  0  0  0  0  0  0
   -7.7782   -8.7591   29.9576 H   0  0  0  0  0  0  0  0  0  0  0  0
   -8.0642   -8.5403   27.4678 H   0  0  0  0  0  0  0  0  0  0  0  0
   -7.7033  -11.0326   26.4208 H   0  0  0  0  0  0  0  0  0  0  0  0
   -7.0087  -13.5510   27.7785 H   0  0  0  0  0  0  0  0  0  0  0  0
   -4.6208  -20.9337   25.4391 H   0  0  0  0  0  0  0  0  0  0  0  0
   -5.7598  -23.5728   25.6912 H   0  0  0  0  0  0  0  0  0  0  0  0
  1  2  1  0
  2  3  2  0
  3  4  1  0
  4  5  1  0
  5  6  2  0
  6  7  1  0
  7  8  2  0
  7  9  1  0
  9 10  1  0
 10 11  1  0
 11 12  2  0
 12 13  1  0
 13 14  2  0
 14 15  1  0
 15 16  1  0
 16 17  2  0
 17 18  1  0
 18 19  2  0
  6 20  1  0
 20 21  2  0
 21 22  1  0
 22 23  2  0
 23  2  1  0
 22  4  1  0
 19 11  1  0
 18 14  1  0
  1 24  1  0
  1 25  1  0
  1 26  1  0
  3 27  1  0
  5 28  1  0
 10 29  1  0
 10 30  1  0
 12 31  1  0
 13 32  1  0
 15 33  1  0
 16 34  1  0
 17 35  1  0
 19 36  1  0
 20 37  1  0
 21 38  1  0
M  END
>  <Energy>  (715) 
1343.649658906116

>  <compound_id>  (715) 
5683

>  <target_id>  (715) 
1

>  <reference_id>  (715) 
45

>  <inspiration_ids>  (715) 
[45, 40]

>  <energy_score>  (715) 
1276.3794091316315

>  <distance_score>  (715) 
8.703898650147275

>  <path>  (715) 
/opt/xchem-fragalysis-2/maxwin/BulkDock/SCRATCH/511018/C5683-P45/C5683-P45.minimised.mol

>  <scratch_subdir>  (715) 
/opt/xchem-fragalysis-2/maxwin/BulkDock/SCRATCH/511018/C5683-P45

>  <fragmenstein_runtime>  (715) 
23.549933195114136

>  <fragmenstein_outcome>  (715) 
too moved

>  <fragmenstein_mode>  (715) 
expansion

>  <fragmenstein_error>  (715) 


$$$$
C5683-P40
     RDKit          3D

 38 41  0  0  0  0  0  0  0  0999 V2000
   -4.5767  -26.8940   18.0905 C   0  0  0  0  0  0  0  0  0  0  0  0
   -5.0000  -25.7429   18.9159 C   0  0  0  0  0  0  0  0  0  0  0  0
   -4.7178  -25.4699   20.2322 C   0  0  0  0  0  0  0  0  0  0  0  0
   -5.4198  -24.3384   20.5480 N   0  0  0  0  0  0  0  0  0  0  0  0
   -5.5639  -23.6820   21.7791 C   0  0  0  0  0  0  0  0  0  0  0  0
   -5.9280  -22.3804   21.7876 C   0  0  0  0  0  0  0  0  0  0  0  0
   -5.8469  -21.2803   22.8518 C   0  0  0  0  0  0  0  0  0  0  0  0
   -6.7736  -20.4437   22.6765 O   0  0  0  0  0  0  0  0  0  0  0  0
   -4.5990  -20.9732   24.1358 O   0  0  0  0  0  0  0  0  0  0  0  0
   -2.8689  -20.2419   23.7802 C   0  0  0  0  0  0  0  0  0  0  0  0
   -1.9656  -18.8321   23.3552 C   0  0  0  0  0  0  0  0  0  0  0  0
   -1.8775  -18.3282   22.0593 C   0  0  0  0  0  0  0  0  0  0  0  0
   -1.3465  -17.0277   21.8042 C   0  0  0  0  0  0  0  0  0  0  0  0
   -0.8775  -16.2241   22.8639 C   0  0  0  0  0  0  0  0  0  0  0  0
   -0.3569  -14.9445   22.8821 N   0  0  0  0  0  0  0  0  0  0  0  0
   -0.0188  -14.5904   24.1624 C   0  0  0  0  0  0  0  0  0  0  0  0
   -0.3564  -15.6358   24.9913 C   0  0  0  0  0  0  0  0  0  0  0  0
   -0.8839  -16.6812   24.1761 C   0  0  0  0  0  0  0  0  0  0  0  0
   -1.4112  -17.9799   24.4154 C   0  0  0  0  0  0  0  0  0  0  0  0
   -6.5434  -21.9074   20.5153 C   0  0  0  0  0  0  0  0  0  0  0  0
   -6.5704  -22.6220   19.3814 C   0  0  0  0  0  0  0  0  0  0  0  0
   -5.9355  -23.8759   19.3525 C   0  0  0  0  0  0  0  0  0  0  0  0
   -5.7442  -24.7287   18.3747 N   0  0  0  0  0  0  0  0  0  0  0  0
   -5.3852  -27.2053   17.4219 H   0  0  0  0  0  0  0  0  0  0  0  0
   -3.7086  -26.6245   17.4815 H   0  0  0  0  0  0  0  0  0  0  0  0
   -4.3070  -27.7501   18.7170 H   0  0  0  0  0  0  0  0  0  0  0  0
   -4.1064  -25.9865   20.9374 H   0  0  0  0  0  0  0  0  0  0  0  0
   -5.1909  -24.2299   22.6336 H   0  0  0  0  0  0  0  0  0  0  0  0
   -2.1297  -21.0010   23.8933 H   0  0  0  0  0  0  0  0  0  0  0  0
   -3.0470  -19.6367   24.6592 H   0  0  0  0  0  0  0  0  0  0  0  0
   -2.2642  -18.9107   21.2244 H   0  0  0  0  0  0  0  0  0  0  0  0
   -1.3177  -16.6570   20.7819 H   0  0  0  0  0  0  0  0  0  0  0  0
   -0.2306  -14.3569   22.0695 H   0  0  0  0  0  0  0  0  0  0  0  0
    0.4222  -13.6231   24.3575 H   0  0  0  0  0  0  0  0  0  0  0  0
   -0.2297  -15.6605   26.0644 H   0  0  0  0  0  0  0  0  0  0  0  0
   -1.5142  -18.2653   25.4626 H   0  0  0  0  0  0  0  0  0  0  0  0
   -7.0158  -20.9268   20.5055 H   0  0  0  0  0  0  0  0  0  0  0  0
   -7.0354  -22.2467   18.4772 H   0  0  0  0  0  0  0  0  0  0  0  0
  1  2  1  0
  2  3  2  0
  3  4  1  0
  4  5  1  0
  5  6  2  0
  6  7  1  0
  7  8  2  0
  7  9  1  0
  9 10  1  0
 10 11  1  0
 11 12  2  0
 12 13  1  0
 13 14  2  0
 14 15  1  0
 15 16  1  0
 16 17  2  0
 17 18  1  0
 18 19  2  0
  6 20  1  0
 20 21  2  0
 21 22  1  0
 22 23  2  0
 23  2  1  0
 22  4  1  0
 19 11  1  0
 18 14  1  0
  1 24  1  0
  1 25  1  0
  1 26  1  0
  3 27  1  0
  5 28  1  0
 10 29  1  0
 10 30  1  0
 12 31  1  0
 13 32  1  0
 15 33  1  0
 16 34  1  0
 17 35  1  0
 19 36  1  0
 20 37  1  0
 21 38  1  0
M  END
>  <Energy>  (716) 
265.17826317182045

>  <compound_id>  (716) 
5683

>  <target_id>  (716) 
1

>  <reference_id>  (716) 
40

>  <inspiration_ids>  (716) 
[45, 40]

>  <energy_score>  (716) 
197.90801339734776

>  <distance_score>  (716) 
11.766640444033246

>  <path>  (716) 
/opt/xchem-fragalysis-2/maxwin/BulkDock/SCRATCH/511018/C5683-P40/C5683-P40.minimised.mol

>  <scratch_subdir>  (716) 
/opt/xchem-fragalysis-2/maxwin/BulkDock/SCRATCH/511018/C5683-P40

>  <fragmenstein_runtime>  (716) 
23.444385051727295

>  <fragmenstein_outcome>  (716) 
too moved

>  <fragmenstein_mode>  (716) 
expansion

>  <fragmenstein_error>  (716) 


$$$$
C5684-P45
     RDKit          3D

 37 40  0  0  0  0  0  0  0  0999 V2000
   -4.4848  -20.3259   24.8070 Cl  0  0  0  0  0  0  0  0  0  0  0  0
   -5.5409  -19.8586   26.4350 C   0  0  0  0  0  0  0  0  0  0  0  0
   -6.0350  -21.0582   27.7105 N   0  0  0  0  0  0  0  0  0  0  0  0
   -7.3110  -21.1599   27.4945 C   0  0  0  0  0  0  0  0  0  0  0  0
   -7.7940  -22.5378   27.7746 C   0  0  0  0  0  0  0  0  0  0  0  0
   -7.1610  -23.6500   27.4062 C   0  0  0  0  0  0  0  0  0  0  0  0
   -5.8364  -23.5837   26.8931 C   0  0  0  0  0  0  0  0  0  0  0  0
   -5.0949  -22.4732   27.1830 C   0  0  0  0  0  0  0  0  0  0  0  0
   -5.6414  -20.6532   27.1343 N   0  0  0  0  0  0  0  0  0  0  0  0
   -5.0714  -18.7879   27.5300 C   0  0  0  0  0  0  0  0  0  0  0  0
   -3.4315  -17.4315   27.5757 C   0  0  0  0  0  0  0  0  0  0  0  0
   -2.5054  -15.7008   27.9937 N   0  0  0  0  0  0  0  0  0  0  0  0
   -2.4234  -14.4833   29.4933 C   0  0  0  0  0  0  0  0  0  0  0  0
   -2.9467  -12.5583   29.7070 C   0  0  0  0  0  0  0  0  0  0  0  0
   -3.7657  -11.8338   30.5764 C   0  0  0  0  0  0  0  0  0  0  0  0
   -3.3735  -10.3470   31.5631 C   0  0  0  0  0  0  0  0  0  0  0  0
   -2.1469   -9.6790   31.5640 C   0  0  0  0  0  0  0  0  0  0  0  0
   -1.6667   -8.4546   31.9661 N   0  0  0  0  0  0  0  0  0  0  0  0
   -0.7959   -7.9936   30.9836 C   0  0  0  0  0  0  0  0  0  0  0  0
   -0.6258   -9.0063   30.0390 C   0  0  0  0  0  0  0  0  0  0  0  0
   -1.4192  -10.1638   30.4842 C   0  0  0  0  0  0  0  0  0  0  0  0
   -2.0850  -11.3502   29.7403 C   0  0  0  0  0  0  0  0  0  0  0  0
   -8.7859  -22.6685   28.1943 H   0  0  0  0  0  0  0  0  0  0  0  0
   -7.5986  -24.6270   27.5824 H   0  0  0  0  0  0  0  0  0  0  0  0
   -5.3288  -24.5466   27.0039 H   0  0  0  0  0  0  0  0  0  0  0  0
   -4.7705  -22.6762   28.2153 H   0  0  0  0  0  0  0  0  0  0  0  0
   -2.5042  -17.9671   27.4153 H   0  0  0  0  0  0  0  0  0  0  0  0
   -3.8404  -16.7585   28.3243 H   0  0  0  0  0  0  0  0  0  0  0  0
   -1.5336  -15.9518   27.8749 H   0  0  0  0  0  0  0  0  0  0  0  0
   -1.4231  -14.7129   29.8655 H   0  0  0  0  0  0  0  0  0  0  0  0
   -3.0733  -15.0496   30.1292 H   0  0  0  0  0  0  0  0  0  0  0  0
   -4.7884  -12.2004   30.7377 H   0  0  0  0  0  0  0  0  0  0  0  0
   -4.2033   -9.8824   32.1297 H   0  0  0  0  0  0  0  0  0  0  0  0
   -2.0601   -7.8780   32.6982 H   0  0  0  0  0  0  0  0  0  0  0  0
   -0.3855   -6.9932   31.0372 H   0  0  0  0  0  0  0  0  0  0  0  0
   -0.1076   -8.9437   29.0936 H   0  0  0  0  0  0  0  0  0  0  0  0
   -1.8440  -11.0148   28.7305 H   0  0  0  0  0  0  0  0  0  0  0  0
  1  2  1  0
  2  3  1  0
  3  4  2  0
  4  5  1  0
  5  6  2  0
  6  7  1  0
  7  8  2  0
  8  9  1  0
  9 10  1  0
 10 11  1  0
 11 12  1  0
 12 13  1  0
 13 14  1  0
 14 15  2  0
 15 16  1  0
 16 17  2  0
 17 18  1  0
 18 19  1  0
 19 20  2  0
 20 21  1  0
 21 22  2  0
 10  2  2  0
 22 14  1  0
  9  4  1  0
 21 17  1  0
  5 23  1  0
  6 24  1  0
  7 25  1  0
  8 26  1  0
 11 27  1  0
 11 28  1  0
 12 29  1  0
 13 30  1  0
 13 31  1  0
 15 32  1  0
 16 33  1  0
 18 34  1  0
 19 35  1  0
 20 36  1  0
 22 37  1  0
M  END
>  <Energy>  (717) 
1512.0109118256537

>  <compound_id>  (717) 
5684

>  <target_id>  (717) 
1

>  <reference_id>  (717) 
45

>  <inspiration_ids>  (717) 
[45, 40]

>  <energy_score>  (717) 
1478.9451301057368

>  <distance_score>  (717) 
6.332804277842183

>  <path>  (717) 
/opt/xchem-fragalysis-2/maxwin/BulkDock/SCRATCH/511018/C5684-P45/C5684-P45.minimised.mol

>  <scratch_subdir>  (717) 
/opt/xchem-fragalysis-2/maxwin/BulkDock/SCRATCH/511018/C5684-P45

>  <fragmenstein_runtime>  (717) 
7.705950021743774

>  <fragmenstein_outcome>  (717) 
too moved

>  <fragmenstein_mode>  (717) 
expansion

>  <fragmenstein_error>  (717) 


$$$$
C5684-P40
     RDKit          3D

 37 40  0  0  0  0  0  0  0  0999 V2000
   -7.6304  -21.3443   27.5570 Cl  0  0  0  0  0  0  0  0  0  0  0  0
   -6.0885  -19.8670   26.9745 C   0  0  0  0  0  0  0  0  0  0  0  0
   -5.7194  -21.3389   27.5078 N   0  0  0  0  0  0  0  0  0  0  0  0
   -5.1710  -21.5024   26.4057 C   0  0  0  0  0  0  0  0  0  0  0  0
   -5.8040  -22.6365   25.6536 C   0  0  0  0  0  0  0  0  0  0  0  0
   -5.5311  -22.6800   24.3347 C   0  0  0  0  0  0  0  0  0  0  0  0
   -5.1412  -20.9557   23.7353 C   0  0  0  0  0  0  0  0  0  0  0  0
   -4.7012  -19.9800   24.5700 C   0  0  0  0  0  0  0  0  0  0  0  0
   -5.2511  -19.7555   26.0307 N   0  0  0  0  0  0  0  0  0  0  0  0
   -5.1198  -18.5083   27.5997 C   0  0  0  0  0  0  0  0  0  0  0  0
   -3.7446  -16.7982   27.9045 C   0  0  0  0  0  0  0  0  0  0  0  0
   -2.7496  -14.9994   28.6350 N   0  0  0  0  0  0  0  0  0  0  0  0
   -2.5944  -12.8768   28.9918 C   0  0  0  0  0  0  0  0  0  0  0  0
   -1.7195  -11.1606   29.7832 C   0  0  0  0  0  0  0  0  0  0  0  0
   -0.8993  -10.1630   29.0156 C   0  0  0  0  0  0  0  0  0  0  0  0
   -0.1894   -8.7502   29.1212 C   0  0  0  0  0  0  0  0  0  0  0  0
   -0.3046   -8.0365   30.2698 C   0  0  0  0  0  0  0  0  0  0  0  0
    0.0462   -6.7789   30.6660 N   0  0  0  0  0  0  0  0  0  0  0  0
   -0.3017   -6.6260   31.9812 C   0  0  0  0  0  0  0  0  0  0  0  0
   -0.8820   -7.8060   32.4029 C   0  0  0  0  0  0  0  0  0  0  0  0
   -0.8941   -8.7025   31.2980 C   0  0  0  0  0  0  0  0  0  0  0  0
   -1.4188  -10.1040   31.0066 C   0  0  0  0  0  0  0  0  0  0  0  0
   -6.7617  -23.0315   25.9767 H   0  0  0  0  0  0  0  0  0  0  0  0
   -6.0230  -23.2846   23.5631 H   0  0  0  0  0  0  0  0  0  0  0  0
   -5.0210  -20.8531   22.6439 H   0  0  0  0  0  0  0  0  0  0  0  0
   -3.6679  -19.9688   24.4219 H   0  0  0  0  0  0  0  0  0  0  0  0
   -2.8106  -17.3530   27.8072 H   0  0  0  0  0  0  0  0  0  0  0  0
   -4.3309  -16.5799   28.8063 H   0  0  0  0  0  0  0  0  0  0  0  0
   -2.0525  -15.0210   27.8770 H   0  0  0  0  0  0  0  0  0  0  0  0
   -2.6941  -12.3051   27.9922 H   0  0  0  0  0  0  0  0  0  0  0  0
   -3.5914  -12.5061   29.2934 H   0  0  0  0  0  0  0  0  0  0  0  0
   -0.9857  -10.4882   28.0122 H   0  0  0  0  0  0  0  0  0  0  0  0
    0.2876   -8.2346   28.3063 H   0  0  0  0  0  0  0  0  0  0  0  0
    0.4879   -6.0692   30.0961 H   0  0  0  0  0  0  0  0  0  0  0  0
   -0.1159   -5.6984   32.5081 H   0  0  0  0  0  0  0  0  0  0  0  0
   -1.2733   -7.9941   33.3956 H   0  0  0  0  0  0  0  0  0  0  0  0
   -1.8510  -10.1125   31.9940 H   0  0  0  0  0  0  0  0  0  0  0  0
  1  2  1  0
  2  3  1  0
  3  4  2  0
  4  5  1  0
  5  6  2  0
  6  7  1  0
  7  8  2  0
  8  9  1  0
  9 10  1  0
 10 11  1  0
 11 12  1  0
 12 13  1  0
 13 14  1  0
 14 15  2  0
 15 16  1  0
 16 17  2  0
 17 18  1  0
 18 19  1  0
 19 20  2  0
 20 21  1  0
 21 22  2  0
 10  2  2  0
 22 14  1  0
  9  4  1  0
 21 17  1  0
  5 23  1  0
  6 24  1  0
  7 25  1  0
  8 26  1  0
 11 27  1  0
 11 28  1  0
 12 29  1  0
 13 30  1  0
 13 31  1  0
 15 32  1  0
 16 33  1  0
 18 34  1  0
 19 35  1  0
 20 36  1  0
 22 37  1  0
M  END
>  <Energy>  (718) 
1663.9418564719665

>  <compound_id>  (718) 
5684

>  <target_id>  (718) 
1

>  <reference_id>  (718) 
40

>  <inspiration_ids>  (718) 
[45, 40]

>  <energy_score>  (718) 
1630.8760747520575

>  <distance_score>  (718) 
6.074174297634569

>  <path>  (718) 
/opt/xchem-fragalysis-2/maxwin/BulkDock/SCRATCH/511018/C5684-P40/C5684-P40.minimised.mol

>  <scratch_subdir>  (718) 
/opt/xchem-fragalysis-2/maxwin/BulkDock/SCRATCH/511018/C5684-P40

>  <fragmenstein_runtime>  (718) 
24.089350938796997

>  <fragmenstein_outcome>  (718) 
too moved

>  <fragmenstein_mode>  (718) 
expansion

>  <fragmenstein_error>  (718) 


$$$$
C5687-P45
     RDKit          3D

 40 43  0  0  0  0  0  0  0  0999 V2000
   -8.1125  -24.8528   27.7639 Br  0  0  0  0  0  0  0  0  0  0  0  0
   -7.3243  -23.1509   27.7399 C   0  0  0  0  0  0  0  0  0  0  0  0
   -5.9688  -23.0532   27.3751 C   0  0  0  0  0  0  0  0  0  0  0  0
   -5.4907  -21.8280   27.1559 C   0  0  0  0  0  0  0  0  0  0  0  0
   -6.0584  -20.4816   27.2634 N   0  0  0  0  0  0  0  0  0  0  0  0
   -5.3590  -18.7349   27.4734 C   0  0  0  0  0  0  0  0  0  0  0  0
   -6.4522  -17.6999   28.5270 C   0  0  0  0  0  0  0  0  0  0  0  0
   -5.6757  -16.2752   29.6517 C   0  0  0  0  0  0  0  0  0  0  0  0
   -5.9073  -14.4498   30.0289 N   0  0  0  0  0  0  0  0  0  0  0  0
   -4.7983  -12.9617   30.1306 C   0  0  0  0  0  0  0  0  0  0  0  0
   -3.1907  -11.9184   30.1086 C   0  0  0  0  0  0  0  0  0  0  0  0
   -2.0150  -10.5293   30.7196 C   0  0  0  0  0  0  0  0  0  0  0  0
   -2.3780   -9.6031   31.8202 C   0  0  0  0  0  0  0  0  0  0  0  0
   -1.7555   -8.3563   32.1217 C   0  0  0  0  0  0  0  0  0  0  0  0
   -0.9622   -7.7991   31.1208 C   0  0  0  0  0  0  0  0  0  0  0  0
   -0.4147   -6.5405   30.9991 N   0  0  0  0  0  0  0  0  0  0  0  0
   -0.1582   -6.2854   29.6761 C   0  0  0  0  0  0  0  0  0  0  0  0
   -0.3150   -7.4734   28.9950 C   0  0  0  0  0  0  0  0  0  0  0  0
   -0.6415   -8.4954   29.9554 C   0  0  0  0  0  0  0  0  0  0  0  0
   -0.9659   -9.9254   29.8408 C   0  0  0  0  0  0  0  0  0  0  0  0
   -8.0230  -18.8150   28.1771 N   0  0  0  0  0  0  0  0  0  0  0  0
   -7.5808  -20.5062   27.7106 C   0  0  0  0  0  0  0  0  0  0  0  0
   -8.0462  -22.0306   27.8842 C   0  0  0  0  0  0  0  0  0  0  0  0
   -5.4219  -23.9464   27.0925 H   0  0  0  0  0  0  0  0  0  0  0  0
   -4.7158  -21.5879   26.5123 H   0  0  0  0  0  0  0  0  0  0  0  0
   -5.5824  -19.1423   26.4828 H   0  0  0  0  0  0  0  0  0  0  0  0
   -4.6113  -16.4332   29.5860 H   0  0  0  0  0  0  0  0  0  0  0  0
   -5.8965  -16.6245   30.6562 H   0  0  0  0  0  0  0  0  0  0  0  0
   -6.4751  -14.1412   29.2299 H   0  0  0  0  0  0  0  0  0  0  0  0
   -5.3027  -12.5134   30.9696 H   0  0  0  0  0  0  0  0  0  0  0  0
   -4.0575  -13.7187   30.1960 H   0  0  0  0  0  0  0  0  0  0  0  0
   -3.1331  -11.7682   29.0418 H   0  0  0  0  0  0  0  0  0  0  0  0
   -3.7920  -11.4032   30.8232 H   0  0  0  0  0  0  0  0  0  0  0  0
   -3.2991   -9.7419   32.3667 H   0  0  0  0  0  0  0  0  0  0  0  0
   -2.0668   -7.7713   32.9797 H   0  0  0  0  0  0  0  0  0  0  0  0
   -0.3623   -5.8605   31.7455 H   0  0  0  0  0  0  0  0  0  0  0  0
    0.1448   -5.3005   29.3471 H   0  0  0  0  0  0  0  0  0  0  0  0
   -0.1361   -7.6182   27.9389 H   0  0  0  0  0  0  0  0  0  0  0  0
   -0.7271  -10.3146   28.8623 H   0  0  0  0  0  0  0  0  0  0  0  0
   -9.0934  -22.1994   28.1852 H   0  0  0  0  0  0  0  0  0  0  0  0
  1  2  1  0
  2  3  1  0
  3  4  2  0
  4  5  1  0
  5  6  1  0
  6  7  2  0
  7  8  1  0
  8  9  1  0
  9 10  1  0
 10 11  1  0
 11 12  1  0
 12 13  2  0
 13 14  1  0
 14 15  2  0
 15 16  1  0
 16 17  1  0
 17 18  2  0
 18 19  1  0
 19 20  2  0
  7 21  1  0
 21 22  2  0
 22 23  1  0
 23  2  2  0
 22  5  1  0
 20 12  1  0
 19 15  1  0
  3 24  1  0
  4 25  1  0
  6 26  1  0
  8 27  1  0
  8 28  1  0
  9 29  1  0
 10 30  1  0
 10 31  1  0
 11 32  1  0
 11 33  1  0
 13 34  1  0
 14 35  1  0
 16 36  1  0
 17 37  1  0
 18 38  1  0
 20 39  1  0
 23 40  1  0
M  END
>  <Energy>  (719) 
906.90453086671528

>  <compound_id>  (719) 
5687

>  <target_id>  (719) 
1

>  <reference_id>  (719) 
45

>  <inspiration_ids>  (719) 
[45, 40]

>  <energy_score>  (719) 
823.6046792322877

>  <distance_score>  (719) 
5.329327387758843

>  <path>  (719) 
/opt/xchem-fragalysis-2/maxwin/BulkDock/SCRATCH/511018/C5687-P45/C5687-P45.minimised.mol

>  <scratch_subdir>  (719) 
/opt/xchem-fragalysis-2/maxwin/BulkDock/SCRATCH/511018/C5687-P45

>  <fragmenstein_runtime>  (719) 
9.249281644821167

>  <fragmenstein_outcome>  (719) 
too moved

>  <fragmenstein_mode>  (719) 
expansion

>  <fragmenstein_error>  (719) 


$$$$
C5687-P40
     RDKit          3D

 40 43  0  0  0  0  0  0  0  0999 V2000
  -10.5939  -23.7280   34.7163 Br  0  0  0  0  0  0  0  0  0  0  0  0
   -9.2442  -22.4522   34.9614 C   0  0  0  0  0  0  0  0  0  0  0  0
   -7.8854  -22.9461   35.1630 C   0  0  0  0  0  0  0  0  0  0  0  0
   -6.8546  -22.1794   34.7651 C   0  0  0  0  0  0  0  0  0  0  0  0
   -7.1387  -20.8908   34.3131 N   0  0  0  0  0  0  0  0  0  0  0  0
   -6.4030  -20.0817   33.4826 C   0  0  0  0  0  0  0  0  0  0  0  0
   -7.1523  -18.9049   33.2772 C   0  0  0  0  0  0  0  0  0  0  0  0
   -6.8469  -17.4469   32.3576 C   0  0  0  0  0  0  0  0  0  0  0  0
   -5.8386  -15.8662   31.7879 N   0  0  0  0  0  0  0  0  0  0  0  0
   -6.5839  -14.3318   31.4023 C   0  0  0  0  0  0  0  0  0  0  0  0
   -6.5519  -12.7815   32.2583 C   0  0  0  0  0  0  0  0  0  0  0  0
   -7.6152  -11.8217   32.8219 C   0  0  0  0  0  0  0  0  0  0  0  0
   -8.7875  -12.2545   33.4544 C   0  0  0  0  0  0  0  0  0  0  0  0
   -9.7039  -11.3829   34.0066 C   0  0  0  0  0  0  0  0  0  0  0  0
   -9.4300  -10.0452   33.8346 C   0  0  0  0  0  0  0  0  0  0  0  0
  -10.0852   -8.9694   34.3443 N   0  0  0  0  0  0  0  0  0  0  0  0
   -9.3720   -7.8538   34.0546 C   0  0  0  0  0  0  0  0  0  0  0  0
   -8.4599   -8.1655   33.0805 C   0  0  0  0  0  0  0  0  0  0  0  0
   -8.3658   -9.5641   33.0889 C   0  0  0  0  0  0  0  0  0  0  0  0
   -7.4177  -10.4500   32.6008 C   0  0  0  0  0  0  0  0  0  0  0  0
   -8.3352  -19.0059   34.0904 N   0  0  0  0  0  0  0  0  0  0  0  0
   -8.3656  -20.2637   34.5205 C   0  0  0  0  0  0  0  0  0  0  0  0
   -9.4729  -21.1323   34.7957 C   0  0  0  0  0  0  0  0  0  0  0  0
   -7.7481  -23.9288   35.5880 H   0  0  0  0  0  0  0  0  0  0  0  0
   -5.8228  -22.5043   34.7448 H   0  0  0  0  0  0  0  0  0  0  0  0
   -5.4335  -20.3982   33.1316 H   0  0  0  0  0  0  0  0  0  0  0  0
   -7.0623  -17.9643   31.4213 H   0  0  0  0  0  0  0  0  0  0  0  0
   -5.8808  -17.7254   32.6763 H   0  0  0  0  0  0  0  0  0  0  0  0
   -5.5461  -16.1031   30.8308 H   0  0  0  0  0  0  0  0  0  0  0  0
   -6.2186  -14.1368   30.3938 H   0  0  0  0  0  0  0  0  0  0  0  0
   -7.6384  -14.5592   31.4469 H   0  0  0  0  0  0  0  0  0  0  0  0
   -5.7752  -12.8459   32.9785 H   0  0  0  0  0  0  0  0  0  0  0  0
   -6.2191  -12.0936   31.5221 H   0  0  0  0  0  0  0  0  0  0  0  0
   -9.0463  -13.3084   33.4595 H   0  0  0  0  0  0  0  0  0  0  0  0
  -10.5830  -11.7378   34.5300 H   0  0  0  0  0  0  0  0  0  0  0  0
  -10.8740   -9.0190   34.9731 H   0  0  0  0  0  0  0  0  0  0  0  0
   -9.6274   -6.9587   34.5773 H   0  0  0  0  0  0  0  0  0  0  0  0
   -7.7647   -7.5146   32.5825 H   0  0  0  0  0  0  0  0  0  0  0  0
   -6.5528  -10.0637   32.0772 H   0  0  0  0  0  0  0  0  0  0  0  0
  -10.4642  -20.7358   34.6127 H   0  0  0  0  0  0  0  0  0  0  0  0
  1  2  1  0
  2  3  1  0
  3  4  2  0
  4  5  1  0
  5  6  1  0
  6  7  2  0
  7  8  1  0
  8  9  1  0
  9 10  1  0
 10 11  1  0
 11 12  1  0
 12 13  2  0
 13 14  1  0
 14 15  2  0
 15 16  1  0
 16 17  1  0
 17 18  2  0
 18 19  1  0
 19 20  2  0
  7 21  1  0
 21 22  2  0
 22 23  1  0
 23  2  2  0
 22  5  1  0
 20 12  1  0
 19 15  1  0
  3 24  1  0
  4 25  1  0
  6 26  1  0
  8 27  1  0
  8 28  1  0
  9 29  1  0
 10 30  1  0
 10 31  1  0
 11 32  1  0
 11 33  1  0
 13 34  1  0
 14 35  1  0
 16 36  1  0
 17 37  1  0
 18 38  1  0
 20 39  1  0
 23 40  1  0
M  END
>  <Energy>  (720) 
307.50920132049941

>  <compound_id>  (720) 
5687

>  <target_id>  (720) 
1

>  <reference_id>  (720) 
40

>  <inspiration_ids>  (720) 
[45, 40]

>  <energy_score>  (720) 
224.20934968610493

>  <distance_score>  (720) 
10.392839891630103

>  <path>  (720) 
/opt/xchem-fragalysis-2/maxwin/BulkDock/SCRATCH/511018/C5687-P40/C5687-P40.minimised.mol

>  <scratch_subdir>  (720) 
/opt/xchem-fragalysis-2/maxwin/BulkDock/SCRATCH/511018/C5687-P40

>  <fragmenstein_runtime>  (720) 
16.258490800857544

>  <fragmenstein_outcome>  (720) 
too moved

>  <fragmenstein_mode>  (720) 
expansion

>  <fragmenstein_error>  (720) 


$$$$
C5660-P45
     RDKit          3D

 39 42  0  0  0  0  0  0  0  0999 V2000
   -4.9207  -20.2139   32.0561 O   0  0  0  0  0  0  0  0  0  0  0  0
   -5.2317  -20.1527   30.8203 C   0  0  0  0  0  0  0  0  0  0  0  0
   -6.1657  -18.2424   30.0558 C   0  0  0  0  0  0  0  0  0  0  0  0
   -5.8279  -16.2953   30.7228 C   0  0  0  0  0  0  0  0  0  0  0  0
   -6.5129  -14.4670   30.9564 C   0  0  0  0  0  0  0  0  0  0  0  0
   -7.7115  -14.2108   31.8808 C   0  0  0  0  0  0  0  0  0  0  0  0
   -8.6369  -13.1479   31.8053 C   0  0  0  0  0  0  0  0  0  0  0  0
   -8.2357  -12.0702   31.0455 C   0  0  0  0  0  0  0  0  0  0  0  0
   -8.7383  -10.7851   30.9492 N   0  0  0  0  0  0  0  0  0  0  0  0
   -7.6809   -9.9703   31.2608 C   0  0  0  0  0  0  0  0  0  0  0  0
   -6.6176  -10.8461   31.2967 C   0  0  0  0  0  0  0  0  0  0  0  0
   -6.9452  -12.0130   30.5320 C   0  0  0  0  0  0  0  0  0  0  0  0
   -6.3081  -13.2938   30.1901 C   0  0  0  0  0  0  0  0  0  0  0  0
   -5.1608  -21.6553   29.2407 N   0  0  0  0  0  0  0  0  0  0  0  0
   -4.7799  -23.3991   29.2305 C   0  0  0  0  0  0  0  0  0  0  0  0
   -6.2851  -24.0728   29.1224 C   0  0  0  0  0  0  0  0  0  0  0  0
   -6.8434  -24.9479   28.2299 C   0  0  0  0  0  0  0  0  0  0  0  0
   -6.4614  -24.6010   26.9322 C   0  0  0  0  0  0  0  0  0  0  0  0
   -7.3982  -23.9306   26.3185 N   0  0  0  0  0  0  0  0  0  0  0  0
   -7.0973  -22.7504   26.8871 C   0  0  0  0  0  0  0  0  0  0  0  0
   -5.7639  -22.5943   26.6736 C   0  0  0  0  0  0  0  0  0  0  0  0
   -4.8095  -20.9108   25.9029 Cl  0  0  0  0  0  0  0  0  0  0  0  0
   -5.2623  -23.8520   26.9529 N   0  0  0  0  0  0  0  0  0  0  0  0
   -4.3969  -24.0129   28.0535 C   0  0  0  0  0  0  0  0  0  0  0  0
   -7.1511  -18.3316   30.3799 H   0  0  0  0  0  0  0  0  0  0  0  0
   -5.9243  -17.8643   29.0633 H   0  0  0  0  0  0  0  0  0  0  0  0
   -5.7510  -16.4587   31.8253 H   0  0  0  0  0  0  0  0  0  0  0  0
   -4.9724  -16.0451   30.1423 H   0  0  0  0  0  0  0  0  0  0  0  0
   -7.9864  -14.9715   32.6261 H   0  0  0  0  0  0  0  0  0  0  0  0
   -9.5260  -13.1253   32.4236 H   0  0  0  0  0  0  0  0  0  0  0  0
   -9.6977  -10.5343   31.1348 H   0  0  0  0  0  0  0  0  0  0  0  0
   -7.8173   -8.9611   31.6255 H   0  0  0  0  0  0  0  0  0  0  0  0
   -5.7237  -10.6388   31.8520 H   0  0  0  0  0  0  0  0  0  0  0  0
   -6.5707  -13.4943   29.1466 H   0  0  0  0  0  0  0  0  0  0  0  0
   -5.4054  -21.2771   28.2962 H   0  0  0  0  0  0  0  0  0  0  0  0
   -7.0489  -23.3105   29.2313 H   0  0  0  0  0  0  0  0  0  0  0  0
   -7.9051  -25.1894   28.3261 H   0  0  0  0  0  0  0  0  0  0  0  0
   -7.7388  -21.9946   27.2928 H   0  0  0  0  0  0  0  0  0  0  0  0
   -4.0605  -25.0446   28.0684 H   0  0  0  0  0  0  0  0  0  0  0  0
  1  2  2  0
  2  3  1  0
  3  4  1  0
  4  5  1  0
  5  6  2  0
  6  7  1  0
  7  8  2  0
  8  9  1  0
  9 10  1  0
 10 11  2  0
 11 12  1  0
 12 13  2  0
  2 14  1  0
 14 15  1  0
 15 16  1  0
 16 17  2  0
 17 18  1  0
 18 19  2  0
 19 20  1  0
 20 21  2  0
 21 22  1  0
 21 23  1  0
 23 24  1  0
 13  5  1  0
 24 15  2  0
 12  8  1  0
 23 18  1  0
  3 25  1  0
  3 26  1  0
  4 27  1  0
  4 28  1  0
  6 29  1  0
  7 30  1  0
  9 31  1  0
 10 32  1  0
 11 33  1  0
 13 34  1  0
 14 35  1  0
 16 36  1  0
 17 37  1  0
 20 38  1  0
 24 39  1  0
M  END
>  <Energy>  (721) 
1017.1753452171251

>  <compound_id>  (721) 
5660

>  <target_id>  (721) 
1

>  <reference_id>  (721) 
45

>  <inspiration_ids>  (721) 
[45, 40]

>  <energy_score>  (721) 
967.9646942486163

>  <distance_score>  (721) 
8.805091587387757

>  <path>  (721) 
/opt/xchem-fragalysis-2/maxwin/BulkDock/SCRATCH/511018/C5660-P45/C5660-P45.minimised.mol

>  <scratch_subdir>  (721) 
/opt/xchem-fragalysis-2/maxwin/BulkDock/SCRATCH/511018/C5660-P45

>  <fragmenstein_runtime>  (721) 
14.031589984893799

>  <fragmenstein_outcome>  (721) 
too moved

>  <fragmenstein_mode>  (721) 
expansion

>  <fragmenstein_error>  (721) 


$$$$
C5660-P40
     RDKit          3D

 39 42  0  0  0  0  0  0  0  0999 V2000
  -10.1652  -17.5225   25.6692 O   0  0  0  0  0  0  0  0  0  0  0  0
   -9.5373  -17.1369   26.6452 C   0  0  0  0  0  0  0  0  0  0  0  0
   -9.9640  -15.6084   26.9726 C   0  0  0  0  0  0  0  0  0  0  0  0
   -8.7528  -14.5304   26.9549 C   0  0  0  0  0  0  0  0  0  0  0  0
   -8.6413  -12.9971   27.0109 C   0  0  0  0  0  0  0  0  0  0  0  0
   -8.7745  -12.2843   28.2131 C   0  0  0  0  0  0  0  0  0  0  0  0
   -8.3588  -10.9387   28.3461 C   0  0  0  0  0  0  0  0  0  0  0  0
   -7.7947  -10.3039   27.2315 C   0  0  0  0  0  0  0  0  0  0  0  0
   -7.2775   -9.0333   27.0820 N   0  0  0  0  0  0  0  0  0  0  0  0
   -6.8185   -8.8522   25.8025 C   0  0  0  0  0  0  0  0  0  0  0  0
   -6.9916  -10.0414   25.1297 C   0  0  0  0  0  0  0  0  0  0  0  0
   -7.6258  -10.9610   26.0174 C   0  0  0  0  0  0  0  0  0  0  0  0
   -8.0590  -12.3088   25.9144 C   0  0  0  0  0  0  0  0  0  0  0  0
   -8.1649  -18.0696   27.5042 N   0  0  0  0  0  0  0  0  0  0  0  0
   -7.2534  -19.7469   27.0042 C   0  0  0  0  0  0  0  0  0  0  0  0
   -8.0958  -21.0941   27.5259 C   0  0  0  0  0  0  0  0  0  0  0  0
   -7.8670  -22.3934   27.2144 C   0  0  0  0  0  0  0  0  0  0  0  0
   -6.6590  -22.4346   26.7202 C   0  0  0  0  0  0  0  0  0  0  0  0
   -5.7234  -22.7861   25.9818 N   0  0  0  0  0  0  0  0  0  0  0  0
   -4.7771  -22.5931   27.1445 C   0  0  0  0  0  0  0  0  0  0  0  0
   -5.4174  -22.2767   28.3141 C   0  0  0  0  0  0  0  0  0  0  0  0
   -6.7230  -23.1364   28.9306 Cl  0  0  0  0  0  0  0  0  0  0  0  0
   -5.8595  -21.4889   27.3227 N   0  0  0  0  0  0  0  0  0  0  0  0
   -5.9474  -19.9388   26.9085 C   0  0  0  0  0  0  0  0  0  0  0  0
  -10.9434  -15.3854   27.4237 H   0  0  0  0  0  0  0  0  0  0  0  0
  -10.3485  -15.3357   25.9640 H   0  0  0  0  0  0  0  0  0  0  0  0
   -8.1396  -14.7998   27.8125 H   0  0  0  0  0  0  0  0  0  0  0  0
   -8.2225  -14.8087   26.0345 H   0  0  0  0  0  0  0  0  0  0  0  0
   -9.1535  -12.7912   29.0984 H   0  0  0  0  0  0  0  0  0  0  0  0
   -8.4457  -10.4265   29.2987 H   0  0  0  0  0  0  0  0  0  0  0  0
   -7.1975   -8.3711   27.8392 H   0  0  0  0  0  0  0  0  0  0  0  0
   -6.3928   -7.9129   25.4884 H   0  0  0  0  0  0  0  0  0  0  0  0
   -6.7076  -10.2340   24.1039 H   0  0  0  0  0  0  0  0  0  0  0  0
   -7.8826  -12.8321   24.9772 H   0  0  0  0  0  0  0  0  0  0  0  0
   -7.7633  -17.4937   28.2237 H   0  0  0  0  0  0  0  0  0  0  0  0
   -9.1760  -20.7954   27.6899 H   0  0  0  0  0  0  0  0  0  0  0  0
   -8.5337  -23.2614   27.3368 H   0  0  0  0  0  0  0  0  0  0  0  0
   -4.0448  -23.4090   27.3563 H   0  0  0  0  0  0  0  0  0  0  0  0
   -5.4783  -19.6945   25.9564 H   0  0  0  0  0  0  0  0  0  0  0  0
  1  2  2  0
  2  3  1  0
  3  4  1  0
  4  5  1  0
  5  6  2  0
  6  7  1  0
  7  8  2  0
  8  9  1  0
  9 10  1  0
 10 11  2  0
 11 12  1  0
 12 13  2  0
  2 14  1  0
 14 15  1  0
 15 16  1  0
 16 17  2  0
 17 18  1  0
 18 19  2  0
 19 20  1  0
 20 21  2  0
 21 22  1  0
 21 23  1  0
 23 24  1  0
 13  5  1  0
 24 15  2  0
 12  8  1  0
 23 18  1  0
  3 25  1  0
  3 26  1  0
  4 27  1  0
  4 28  1  0
  6 29  1  0
  7 30  1  0
  9 31  1  0
 10 32  1  0
 11 33  1  0
 13 34  1  0
 14 35  1  0
 16 36  1  0
 17 37  1  0
 20 38  1  0
 24 39  1  0
M  END
>  <Energy>  (722) 
648.88151746660981

>  <compound_id>  (722) 
5660

>  <target_id>  (722) 
1

>  <reference_id>  (722) 
40

>  <inspiration_ids>  (722) 
[45, 40]

>  <energy_score>  (722) 
599.6708664981024

>  <distance_score>  (722) 
9.262719958356596

>  <path>  (722) 
/opt/xchem-fragalysis-2/maxwin/BulkDock/SCRATCH/511018/C5660-P40/C5660-P40.minimised.mol

>  <scratch_subdir>  (722) 
/opt/xchem-fragalysis-2/maxwin/BulkDock/SCRATCH/511018/C5660-P40

>  <fragmenstein_runtime>  (722) 
18.714651107788086

>  <fragmenstein_outcome>  (722) 
too moved

>  <fragmenstein_mode>  (722) 
expansion

>  <fragmenstein_error>  (722) 


$$$$
C5687-P45
     RDKit          3D

 40 43  0  0  0  0  0  0  0  0999 V2000
   -8.1125  -24.8528   27.7639 Br  0  0  0  0  0  0  0  0  0  0  0  0
   -7.3243  -23.1509   27.7399 C   0  0  0  0  0  0  0  0  0  0  0  0
   -5.9688  -23.0532   27.3751 C   0  0  0  0  0  0  0  0  0  0  0  0
   -5.4907  -21.8280   27.1559 C   0  0  0  0  0  0  0  0  0  0  0  0
   -6.0584  -20.4816   27.2634 N   0  0  0  0  0  0  0  0  0  0  0  0
   -5.3590  -18.7349   27.4734 C   0  0  0  0  0  0  0  0  0  0  0  0
   -6.4522  -17.6999   28.5270 C   0  0  0  0  0  0  0  0  0  0  0  0
   -5.6757  -16.2752   29.6517 C   0  0  0  0  0  0  0  0  0  0  0  0
   -5.9073  -14.4498   30.0289 N   0  0  0  0  0  0  0  0  0  0  0  0
   -4.7983  -12.9617   30.1306 C   0  0  0  0  0  0  0  0  0  0  0  0
   -3.1907  -11.9184   30.1086 C   0  0  0  0  0  0  0  0  0  0  0  0
   -2.0150  -10.5293   30.7196 C   0  0  0  0  0  0  0  0  0  0  0  0
   -2.3780   -9.6031   31.8202 C   0  0  0  0  0  0  0  0  0  0  0  0
   -1.7555   -8.3563   32.1217 C   0  0  0  0  0  0  0  0  0  0  0  0
   -0.9622   -7.7991   31.1208 C   0  0  0  0  0  0  0  0  0  0  0  0
   -0.4147   -6.5405   30.9991 N   0  0  0  0  0  0  0  0  0  0  0  0
   -0.1582   -6.2854   29.6761 C   0  0  0  0  0  0  0  0  0  0  0  0
   -0.3150   -7.4734   28.9950 C   0  0  0  0  0  0  0  0  0  0  0  0
   -0.6415   -8.4954   29.9554 C   0  0  0  0  0  0  0  0  0  0  0  0
   -0.9659   -9.9254   29.8408 C   0  0  0  0  0  0  0  0  0  0  0  0
   -8.0230  -18.8150   28.1771 N   0  0  0  0  0  0  0  0  0  0  0  0
   -7.5808  -20.5062   27.7106 C   0  0  0  0  0  0  0  0  0  0  0  0
   -8.0462  -22.0306   27.8842 C   0  0  0  0  0  0  0  0  0  0  0  0
   -5.4219  -23.9464   27.0925 H   0  0  0  0  0  0  0  0  0  0  0  0
   -4.7158  -21.5879   26.5123 H   0  0  0  0  0  0  0  0  0  0  0  0
   -5.5824  -19.1423   26.4828 H   0  0  0  0  0  0  0  0  0  0  0  0
   -4.6113  -16.4332   29.5860 H   0  0  0  0  0  0  0  0  0  0  0  0
   -5.8965  -16.6245   30.6562 H   0  0  0  0  0  0  0  0  0  0  0  0
   -6.4751  -14.1412   29.2299 H   0  0  0  0  0  0  0  0  0  0  0  0
   -5.3027  -12.5134   30.9696 H   0  0  0  0  0  0  0  0  0  0  0  0
   -4.0575  -13.7187   30.1960 H   0  0  0  0  0  0  0  0  0  0  0  0
   -3.1331  -11.7682   29.0418 H   0  0  0  0  0  0  0  0  0  0  0  0
   -3.7920  -11.4032   30.8232 H   0  0  0  0  0  0  0  0  0  0  0  0
   -3.2991   -9.7419   32.3667 H   0  0  0  0  0  0  0  0  0  0  0  0
   -2.0668   -7.7713   32.9797 H   0  0  0  0  0  0  0  0  0  0  0  0
   -0.3623   -5.8605   31.7455 H   0  0  0  0  0  0  0  0  0  0  0  0
    0.1448   -5.3005   29.3471 H   0  0  0  0  0  0  0  0  0  0  0  0
   -0.1361   -7.6182   27.9389 H   0  0  0  0  0  0  0  0  0  0  0  0
   -0.7271  -10.3146   28.8623 H   0  0  0  0  0  0  0  0  0  0  0  0
   -9.0934  -22.1994   28.1852 H   0  0  0  0  0  0  0  0  0  0  0  0
  1  2  1  0
  2  3  1  0
  3  4  2  0
  4  5  1  0
  5  6  1  0
  6  7  2  0
  7  8  1  0
  8  9  1  0
  9 10  1  0
 10 11  1  0
 11 12  1  0
 12 13  2  0
 13 14  1  0
 14 15  2  0
 15 16  1  0
 16 17  1  0
 17 18  2  0
 18 19  1  0
 19 20  2  0
  7 21  1  0
 21 22  2  0
 22 23  1  0
 23  2  2  0
 22  5  1  0
 20 12  1  0
 19 15  1  0
  3 24  1  0
  4 25  1  0
  6 26  1  0
  8 27  1  0
  8 28  1  0
  9 29  1  0
 10 30  1  0
 10 31  1  0
 11 32  1  0
 11 33  1  0
 13 34  1  0
 14 35  1  0
 16 36  1  0
 17 37  1  0
 18 38  1  0
 20 39  1  0
 23 40  1  0
M  END
>  <Energy>  (723) 
906.90453086671528

>  <compound_id>  (723) 
5687

>  <target_id>  (723) 
1

>  <reference_id>  (723) 
45

>  <inspiration_ids>  (723) 
[45, 40]

>  <energy_score>  (723) 
823.6046792322877

>  <distance_score>  (723) 
5.329327387758843

>  <path>  (723) 
/opt/xchem-fragalysis-2/maxwin/BulkDock/SCRATCH/511018/C5687-P45/C5687-P45.minimised.mol

>  <scratch_subdir>  (723) 
/opt/xchem-fragalysis-2/maxwin/BulkDock/SCRATCH/511018/C5687-P45

>  <fragmenstein_runtime>  (723) 
8.525368452072144

>  <fragmenstein_outcome>  (723) 
too moved

>  <fragmenstein_mode>  (723) 
expansion

>  <fragmenstein_error>  (723) 


$$$$
C5687-P40
     RDKit          3D

 40 43  0  0  0  0  0  0  0  0999 V2000
  -10.5939  -23.7280   34.7163 Br  0  0  0  0  0  0  0  0  0  0  0  0
   -9.2442  -22.4522   34.9614 C   0  0  0  0  0  0  0  0  0  0  0  0
   -7.8854  -22.9461   35.1630 C   0  0  0  0  0  0  0  0  0  0  0  0
   -6.8546  -22.1794   34.7651 C   0  0  0  0  0  0  0  0  0  0  0  0
   -7.1387  -20.8908   34.3131 N   0  0  0  0  0  0  0  0  0  0  0  0
   -6.4030  -20.0817   33.4826 C   0  0  0  0  0  0  0  0  0  0  0  0
   -7.1523  -18.9049   33.2772 C   0  0  0  0  0  0  0  0  0  0  0  0
   -6.8469  -17.4469   32.3576 C   0  0  0  0  0  0  0  0  0  0  0  0
   -5.8386  -15.8662   31.7879 N   0  0  0  0  0  0  0  0  0  0  0  0
   -6.5839  -14.3318   31.4023 C   0  0  0  0  0  0  0  0  0  0  0  0
   -6.5519  -12.7815   32.2583 C   0  0  0  0  0  0  0  0  0  0  0  0
   -7.6152  -11.8217   32.8219 C   0  0  0  0  0  0  0  0  0  0  0  0
   -8.7875  -12.2545   33.4544 C   0  0  0  0  0  0  0  0  0  0  0  0
   -9.7039  -11.3829   34.0066 C   0  0  0  0  0  0  0  0  0  0  0  0
   -9.4300  -10.0452   33.8346 C   0  0  0  0  0  0  0  0  0  0  0  0
  -10.0852   -8.9694   34.3443 N   0  0  0  0  0  0  0  0  0  0  0  0
   -9.3720   -7.8538   34.0546 C   0  0  0  0  0  0  0  0  0  0  0  0
   -8.4599   -8.1655   33.0805 C   0  0  0  0  0  0  0  0  0  0  0  0
   -8.3658   -9.5641   33.0889 C   0  0  0  0  0  0  0  0  0  0  0  0
   -7.4177  -10.4500   32.6008 C   0  0  0  0  0  0  0  0  0  0  0  0
   -8.3352  -19.0059   34.0904 N   0  0  0  0  0  0  0  0  0  0  0  0
   -8.3656  -20.2637   34.5205 C   0  0  0  0  0  0  0  0  0  0  0  0
   -9.4729  -21.1323   34.7957 C   0  0  0  0  0  0  0  0  0  0  0  0
   -7.7481  -23.9288   35.5880 H   0  0  0  0  0  0  0  0  0  0  0  0
   -5.8228  -22.5043   34.7448 H   0  0  0  0  0  0  0  0  0  0  0  0
   -5.4335  -20.3982   33.1316 H   0  0  0  0  0  0  0  0  0  0  0  0
   -7.0623  -17.9643   31.4213 H   0  0  0  0  0  0  0  0  0  0  0  0
   -5.8808  -17.7254   32.6763 H   0  0  0  0  0  0  0  0  0  0  0  0
   -5.5461  -16.1031   30.8308 H   0  0  0  0  0  0  0  0  0  0  0  0
   -6.2186  -14.1368   30.3938 H   0  0  0  0  0  0  0  0  0  0  0  0
   -7.6384  -14.5592   31.4469 H   0  0  0  0  0  0  0  0  0  0  0  0
   -5.7752  -12.8459   32.9785 H   0  0  0  0  0  0  0  0  0  0  0  0
   -6.2191  -12.0936   31.5221 H   0  0  0  0  0  0  0  0  0  0  0  0
   -9.0463  -13.3084   33.4595 H   0  0  0  0  0  0  0  0  0  0  0  0
  -10.5830  -11.7378   34.5300 H   0  0  0  0  0  0  0  0  0  0  0  0
  -10.8740   -9.0190   34.9731 H   0  0  0  0  0  0  0  0  0  0  0  0
   -9.6274   -6.9587   34.5773 H   0  0  0  0  0  0  0  0  0  0  0  0
   -7.7647   -7.5146   32.5825 H   0  0  0  0  0  0  0  0  0  0  0  0
   -6.5528  -10.0637   32.0772 H   0  0  0  0  0  0  0  0  0  0  0  0
  -10.4642  -20.7358   34.6127 H   0  0  0  0  0  0  0  0  0  0  0  0
  1  2  1  0
  2  3  1  0
  3  4  2  0
  4  5  1  0
  5  6  1  0
  6  7  2  0
  7  8  1  0
  8  9  1  0
  9 10  1  0
 10 11  1  0
 11 12  1  0
 12 13  2  0
 13 14  1  0
 14 15  2  0
 15 16  1  0
 16 17  1  0
 17 18  2  0
 18 19  1  0
 19 20  2  0
  7 21  1  0
 21 22  2  0
 22 23  1  0
 23  2  2  0
 22  5  1  0
 20 12  1  0
 19 15  1  0
  3 24  1  0
  4 25  1  0
  6 26  1  0
  8 27  1  0
  8 28  1  0
  9 29  1  0
 10 30  1  0
 10 31  1  0
 11 32  1  0
 11 33  1  0
 13 34  1  0
 14 35  1  0
 16 36  1  0
 17 37  1  0
 18 38  1  0
 20 39  1  0
 23 40  1  0
M  END
>  <Energy>  (724) 
307.50920132049941

>  <compound_id>  (724) 
5687

>  <target_id>  (724) 
1

>  <reference_id>  (724) 
40

>  <inspiration_ids>  (724) 
[45, 40]

>  <energy_score>  (724) 
224.20934968610493

>  <distance_score>  (724) 
10.392839891630103

>  <path>  (724) 
/opt/xchem-fragalysis-2/maxwin/BulkDock/SCRATCH/511018/C5687-P40/C5687-P40.minimised.mol

>  <scratch_subdir>  (724) 
/opt/xchem-fragalysis-2/maxwin/BulkDock/SCRATCH/511018/C5687-P40

>  <fragmenstein_runtime>  (724) 
22.956576108932495

>  <fragmenstein_outcome>  (724) 
too moved

>  <fragmenstein_mode>  (724) 
expansion

>  <fragmenstein_error>  (724) 


$$$$
C5677-P45
     RDKit          3D

 34 38  0  0  0  0  0  0  0  0999 V2000
   -8.1275  -25.2501   27.0413 Br  0  0  0  0  0  0  0  0  0  0  0  0
   -6.5478  -24.3977   27.5109 C   0  0  0  0  0  0  0  0  0  0  0  0
   -5.3198  -25.1497   27.4666 C   0  0  0  0  0  0  0  0  0  0  0  0
   -4.2769  -24.7219   28.2178 C   0  0  0  0  0  0  0  0  0  0  0  0
   -4.3599  -23.5390   29.1040 N   0  0  0  0  0  0  0  0  0  0  0  0
   -3.5395  -22.2589   30.2135 C   0  0  0  0  0  0  0  0  0  0  0  0
   -2.7313  -20.7309   29.3348 C   0  0  0  0  0  0  0  0  0  0  0  0
   -2.9774  -18.9091   27.7203 C   0  0  0  0  0  0  0  0  0  0  0  0
   -3.4111  -17.2873   27.8707 N   0  0  0  0  0  0  0  0  0  0  0  0
   -2.5970  -15.7300   28.1549 C   0  0  0  0  0  0  0  0  0  0  0  0
   -2.7467  -14.3823   29.6290 C   0  0  0  0  0  0  0  0  0  0  0  0
   -4.1823  -13.5139   30.1115 C   0  0  0  0  0  0  0  0  0  0  0  0
   -4.5375  -12.0986   30.6460 C   0  0  0  0  0  0  0  0  0  0  0  0
   -3.4020  -11.1752   30.9014 C   0  0  0  0  0  0  0  0  0  0  0  0
   -3.1337   -9.9573   31.7024 N   0  0  0  0  0  0  0  0  0  0  0  0
   -1.8467   -9.5555   31.4764 C   0  0  0  0  0  0  0  0  0  0  0  0
   -1.3822  -10.3841   30.4261 C   0  0  0  0  0  0  0  0  0  0  0  0
   -2.2922  -11.4989   30.2450 C   0  0  0  0  0  0  0  0  0  0  0  0
   -2.5994  -12.8102   29.4746 C   0  0  0  0  0  0  0  0  0  0  0  0
   -1.5609  -16.5178   27.6685 N   0  0  0  0  0  0  0  0  0  0  0  0
   -1.6085  -17.9791   27.2357 O   0  0  0  0  0  0  0  0  0  0  0  0
   -4.4939  -21.7933   29.0319 N   0  0  0  0  0  0  0  0  0  0  0  0
   -5.1905  -22.7127   28.4239 C   0  0  0  0  0  0  0  0  0  0  0  0
   -6.4470  -23.1235   27.9186 C   0  0  0  0  0  0  0  0  0  0  0  0
   -5.2108  -25.9694   26.7614 H   0  0  0  0  0  0  0  0  0  0  0  0
   -3.3704  -25.1979   27.8801 H   0  0  0  0  0  0  0  0  0  0  0  0
   -3.5479  -22.7947   31.1689 H   0  0  0  0  0  0  0  0  0  0  0  0
   -5.1574  -14.0745   30.2262 H   0  0  0  0  0  0  0  0  0  0  0  0
   -5.4706  -11.9023   31.1402 H   0  0  0  0  0  0  0  0  0  0  0  0
   -3.8341   -9.4827   32.2601 H   0  0  0  0  0  0  0  0  0  0  0  0
   -1.4514   -8.6487   31.9232 H   0  0  0  0  0  0  0  0  0  0  0  0
   -0.4790  -10.1904   29.8524 H   0  0  0  0  0  0  0  0  0  0  0  0
   -3.1577  -12.3010   28.6411 H   0  0  0  0  0  0  0  0  0  0  0  0
   -7.2877  -22.4476   27.9337 H   0  0  0  0  0  0  0  0  0  0  0  0
  1  2  1  0
  2  3  1  0
  3  4  2  0
  4  5  1  0
  5  6  1  0
  6  7  2  0
  7  8  1  0
  8  9  2  0
  9 10  1  0
 10 11  1  0
 11 12  2  0
 12 13  1  0
 13 14  2  0
 14 15  1  0
 15 16  1  0
 16 17  2  0
 17 18  1  0
 18 19  2  0
 10 20  2  0
 20 21  1  0
  7 22  1  0
 22 23  2  0
 23 24  1  0
 24  2  2  0
 23  5  1  0
 21  8  1  0
 19 11  1  0
 18 14  1  0
  3 25  1  0
  4 26  1  0
  6 27  1  0
 12 28  1  0
 13 29  1  0
 15 30  1  0
 16 31  1  0
 17 32  1  0
 19 33  1  0
 24 34  1  0
M  END
>  <Energy>  (725) 
1526.2035345353775

>  <compound_id>  (725) 
5677

>  <target_id>  (725) 
1

>  <reference_id>  (725) 
45

>  <inspiration_ids>  (725) 
[45, 40]

>  <energy_score>  (725) 
1422.354541834236

>  <distance_score>  (725) 
7.1401796960283255

>  <path>  (725) 
/opt/xchem-fragalysis-2/maxwin/BulkDock/SCRATCH/511018/C5677-P45/C5677-P45.minimised.mol

>  <scratch_subdir>  (725) 
/opt/xchem-fragalysis-2/maxwin/BulkDock/SCRATCH/511018/C5677-P45

>  <fragmenstein_runtime>  (725) 
13.196395874023438

>  <fragmenstein_outcome>  (725) 
too moved

>  <fragmenstein_mode>  (725) 
expansion

>  <fragmenstein_error>  (725) 


$$$$
C5677-P40
     RDKit          3D

 34 38  0  0  0  0  0  0  0  0999 V2000
   -7.5295  -25.5758   30.8090 Br  0  0  0  0  0  0  0  0  0  0  0  0
   -5.6777  -24.3063   31.3763 C   0  0  0  0  0  0  0  0  0  0  0  0
   -4.8870  -24.0007   29.6410 C   0  0  0  0  0  0  0  0  0  0  0  0
   -4.3029  -22.6959   29.7438 C   0  0  0  0  0  0  0  0  0  0  0  0
   -3.6488  -21.8146   31.2579 N   0  0  0  0  0  0  0  0  0  0  0  0
   -2.5374  -20.6797   31.5677 C   0  0  0  0  0  0  0  0  0  0  0  0
   -2.7613  -19.2109   32.4332 C   0  0  0  0  0  0  0  0  0  0  0  0
   -3.3882  -17.0446   31.9849 C   0  0  0  0  0  0  0  0  0  0  0  0
   -2.5356  -15.5383   31.5552 N   0  0  0  0  0  0  0  0  0  0  0  0
   -2.8322  -14.4992   29.9754 C   0  0  0  0  0  0  0  0  0  0  0  0
   -2.5623  -12.4158   29.5786 C   0  0  0  0  0  0  0  0  0  0  0  0
   -1.3029  -11.5735   30.4876 C   0  0  0  0  0  0  0  0  0  0  0  0
   -1.1952  -10.1897   31.2488 C   0  0  0  0  0  0  0  0  0  0  0  0
   -0.7242   -9.3447   30.3957 C   0  0  0  0  0  0  0  0  0  0  0  0
   -0.2358   -8.1049   30.6746 N   0  0  0  0  0  0  0  0  0  0  0  0
    0.1748   -7.5953   29.5198 C   0  0  0  0  0  0  0  0  0  0  0  0
   -0.3926   -8.4880   28.6417 C   0  0  0  0  0  0  0  0  0  0  0  0
   -0.9384   -9.8391   29.1154 C   0  0  0  0  0  0  0  0  0  0  0  0
   -2.1137  -11.2770   28.7819 C   0  0  0  0  0  0  0  0  0  0  0  0
   -4.1520  -14.9384   30.6116 N   0  0  0  0  0  0  0  0  0  0  0  0
   -4.3271  -16.2811   30.7280 O   0  0  0  0  0  0  0  0  0  0  0  0
   -3.9097  -20.5073   33.1120 N   0  0  0  0  0  0  0  0  0  0  0  0
   -4.0950  -21.9899   32.5877 C   0  0  0  0  0  0  0  0  0  0  0  0
   -5.1819  -23.4233   32.6380 C   0  0  0  0  0  0  0  0  0  0  0  0
   -5.1340  -24.7334   28.9460 H   0  0  0  0  0  0  0  0  0  0  0  0
   -4.6462  -22.2848   28.8192 H   0  0  0  0  0  0  0  0  0  0  0  0
   -1.9248  -20.8718   30.6952 H   0  0  0  0  0  0  0  0  0  0  0  0
   -0.2437  -11.8940   30.5282 H   0  0  0  0  0  0  0  0  0  0  0  0
   -1.8617   -9.7452   31.9864 H   0  0  0  0  0  0  0  0  0  0  0  0
   -0.1042   -7.7237   31.6052 H   0  0  0  0  0  0  0  0  0  0  0  0
    0.6058   -6.6076   29.4138 H   0  0  0  0  0  0  0  0  0  0  0  0
   -0.5623   -8.0353   27.7113 H   0  0  0  0  0  0  0  0  0  0  0  0
   -2.2767  -11.4113   27.6974 H   0  0  0  0  0  0  0  0  0  0  0  0
   -5.7245  -23.4553   33.5775 H   0  0  0  0  0  0  0  0  0  0  0  0
  1  2  1  0
  2  3  1  0
  3  4  2  0
  4  5  1  0
  5  6  1  0
  6  7  2  0
  7  8  1  0
  8  9  2  0
  9 10  1  0
 10 11  1  0
 11 12  2  0
 12 13  1  0
 13 14  2  0
 14 15  1  0
 15 16  1  0
 16 17  2  0
 17 18  1  0
 18 19  2  0
 10 20  2  0
 20 21  1  0
  7 22  1  0
 22 23  2  0
 23 24  1  0
 24  2  2  0
 23  5  1  0
 21  8  1  0
 19 11  1  0
 18 14  1  0
  3 25  1  0
  4 26  1  0
  6 27  1  0
 12 28  1  0
 13 29  1  0
 15 30  1  0
 16 31  1  0
 17 32  1  0
 19 33  1  0
 24 34  1  0
M  END
>  <Energy>  (726) 
1562.1306424483346

>  <compound_id>  (726) 
5677

>  <target_id>  (726) 
1

>  <reference_id>  (726) 
40

>  <inspiration_ids>  (726) 
[45, 40]

>  <energy_score>  (726) 
1458.2816497472054

>  <distance_score>  (726) 
6.6084607742613235

>  <path>  (726) 
/opt/xchem-fragalysis-2/maxwin/BulkDock/SCRATCH/511018/C5677-P40/C5677-P40.minimised.mol

>  <scratch_subdir>  (726) 
/opt/xchem-fragalysis-2/maxwin/BulkDock/SCRATCH/511018/C5677-P40

>  <fragmenstein_runtime>  (726) 
10.383504867553711

>  <fragmenstein_outcome>  (726) 
too moved

>  <fragmenstein_mode>  (726) 
expansion

>  <fragmenstein_error>  (726) 


$$$$
C5689-P45
     RDKit          3D

 36 39  0  0  0  0  0  0  0  0999 V2000
   -0.8266  -20.3334   28.2694 O   0  0  0  0  0  0  0  0  0  0  0  0
   -0.4691  -20.8129   29.2852 C   0  0  0  0  0  0  0  0  0  0  0  0
    0.6544  -20.5160   30.0955 N   0  0  0  0  0  0  0  0  0  0  0  0
    1.7931  -19.5823   29.8796 C   0  0  0  0  0  0  0  0  0  0  0  0
    1.6831  -18.1871   29.2019 C   0  0  0  0  0  0  0  0  0  0  0  0
    1.6424  -16.9831   29.9256 C   0  0  0  0  0  0  0  0  0  0  0  0
    1.7035  -15.6841   29.3765 C   0  0  0  0  0  0  0  0  0  0  0  0
    1.7596  -15.5993   27.9931 C   0  0  0  0  0  0  0  0  0  0  0  0
    1.7939  -14.5076   27.1592 N   0  0  0  0  0  0  0  0  0  0  0  0
    1.8039  -14.9150   25.8536 C   0  0  0  0  0  0  0  0  0  0  0  0
    1.7936  -16.2887   25.8438 C   0  0  0  0  0  0  0  0  0  0  0  0
    1.7631  -16.7399   27.1927 C   0  0  0  0  0  0  0  0  0  0  0  0
    1.7427  -18.0273   27.8066 C   0  0  0  0  0  0  0  0  0  0  0  0
   -1.3714  -22.0441   29.6827 C   0  0  0  0  0  0  0  0  0  0  0  0
   -1.1942  -23.2267   28.6560 C   0  0  0  0  0  0  0  0  0  0  0  0
   -2.7539  -23.9760   27.9645 N   0  0  0  0  0  0  0  0  0  0  0  0
   -3.1678  -25.2749   27.2453 C   0  0  0  0  0  0  0  0  0  0  0  0
   -4.4538  -25.6368   27.1450 C   0  0  0  0  0  0  0  0  0  0  0  0
   -5.4667  -24.7699   27.6760 C   0  0  0  0  0  0  0  0  0  0  0  0
   -5.2527  -23.8869   28.6684 C   0  0  0  0  0  0  0  0  0  0  0  0
   -3.9247  -23.6764   29.2703 C   0  0  0  0  0  0  0  0  0  0  0  0
   -3.1751  -22.5638   30.2980 N   0  0  0  0  0  0  0  0  0  0  0  0
    0.6966  -21.1824   30.8540 H   0  0  0  0  0  0  0  0  0  0  0  0
    2.4671  -20.1588   29.2301 H   0  0  0  0  0  0  0  0  0  0  0  0
    2.3551  -19.4979   30.8059 H   0  0  0  0  0  0  0  0  0  0  0  0
    1.4733  -17.0348   30.9781 H   0  0  0  0  0  0  0  0  0  0  0  0
    1.6640  -14.8083   30.0124 H   0  0  0  0  0  0  0  0  0  0  0  0
    1.7917  -13.5453   27.4648 H   0  0  0  0  0  0  0  0  0  0  0  0
    1.8127  -14.1987   25.0438 H   0  0  0  0  0  0  0  0  0  0  0  0
    1.7957  -16.9107   24.9592 H   0  0  0  0  0  0  0  0  0  0  0  0
    1.7772  -18.9042   27.1674 H   0  0  0  0  0  0  0  0  0  0  0  0
   -0.4348  -23.0558   27.9190 H   0  0  0  0  0  0  0  0  0  0  0  0
   -2.3938  -25.7573   26.6890 H   0  0  0  0  0  0  0  0  0  0  0  0
   -4.7405  -26.5112   26.5695 H   0  0  0  0  0  0  0  0  0  0  0  0
   -6.4517  -24.8440   27.2218 H   0  0  0  0  0  0  0  0  0  0  0  0
   -6.0857  -23.2421   28.8903 H   0  0  0  0  0  0  0  0  0  0  0  0
  1  2  2  0
  2  3  1  0
  3  4  1  0
  4  5  1  0
  5  6  2  0
  6  7  1  0
  7  8  2  0
  8  9  1  0
  9 10  1  0
 10 11  2  0
 11 12  1  0
 12 13  2  0
  2 14  1  0
 14 15  2  0
 15 16  1  0
 16 17  1  0
 17 18  2  0
 18 19  1  0
 19 20  2  0
 20 21  1  0
 21 22  2  0
 13  5  1  0
 22 14  1  0
 12  8  1  0
 21 16  1  0
  3 23  1  0
  4 24  1  0
  4 25  1  0
  6 26  1  0
  7 27  1  0
  9 28  1  0
 10 29  1  0
 11 30  1  0
 13 31  1  0
 15 32  1  0
 17 33  1  0
 18 34  1  0
 19 35  1  0
 20 36  1  0
M  END
>  <Energy>  (727) 
388.70957284353972

>  <compound_id>  (727) 
5689

>  <target_id>  (727) 
1

>  <reference_id>  (727) 
45

>  <inspiration_ids>  (727) 
[45, 40]

>  <energy_score>  (727) 
324.1070444430875

>  <distance_score>  (727) 
9.297429944273

>  <path>  (727) 
/opt/xchem-fragalysis-2/maxwin/BulkDock/SCRATCH/511018/C5689-P45/C5689-P45.minimised.mol

>  <scratch_subdir>  (727) 
/opt/xchem-fragalysis-2/maxwin/BulkDock/SCRATCH/511018/C5689-P45

>  <fragmenstein_runtime>  (727) 
18.005659580230713

>  <fragmenstein_outcome>  (727) 
too moved

>  <fragmenstein_mode>  (727) 
expansion

>  <fragmenstein_error>  (727) 


$$$$
C5689-P40
     RDKit          3D

 36 39  0  0  0  0  0  0  0  0999 V2000
   -5.2780  -18.0560   27.8684 O   0  0  0  0  0  0  0  0  0  0  0  0
   -6.1063  -17.5259   28.5940 C   0  0  0  0  0  0  0  0  0  0  0  0
   -5.2842  -15.9821   29.6421 N   0  0  0  0  0  0  0  0  0  0  0  0
   -3.3486  -15.0178   29.6107 C   0  0  0  0  0  0  0  0  0  0  0  0
   -2.5749  -13.1041   29.2075 C   0  0  0  0  0  0  0  0  0  0  0  0
   -2.4995  -11.9429   29.7918 C   0  0  0  0  0  0  0  0  0  0  0  0
   -1.1357  -11.0846   30.5564 C   0  0  0  0  0  0  0  0  0  0  0  0
   -1.0184   -9.8551   30.2959 C   0  0  0  0  0  0  0  0  0  0  0  0
   -0.5667   -8.7208   30.8605 N   0  0  0  0  0  0  0  0  0  0  0  0
   -0.1493   -7.9421   29.8558 C   0  0  0  0  0  0  0  0  0  0  0  0
   -0.4788   -8.6842   28.7394 C   0  0  0  0  0  0  0  0  0  0  0  0
   -1.1234  -10.1553   28.9470 C   0  0  0  0  0  0  0  0  0  0  0  0
   -2.2325  -11.6166   28.4042 C   0  0  0  0  0  0  0  0  0  0  0  0
   -7.8501  -18.3301   28.2029 C   0  0  0  0  0  0  0  0  0  0  0  0
   -7.1274  -19.6330   26.9795 C   0  0  0  0  0  0  0  0  0  0  0  0
   -8.0994  -20.9424   27.5946 N   0  0  0  0  0  0  0  0  0  0  0  0
   -7.9960  -22.4072   27.7381 C   0  0  0  0  0  0  0  0  0  0  0  0
   -9.1883  -23.1435   27.9126 C   0  0  0  0  0  0  0  0  0  0  0  0
  -10.5630  -22.4713   28.1206 C   0  0  0  0  0  0  0  0  0  0  0  0
  -10.8018  -21.1249   28.0948 C   0  0  0  0  0  0  0  0  0  0  0  0
   -9.6995  -20.1845   27.9145 C   0  0  0  0  0  0  0  0  0  0  0  0
   -9.3885  -18.7934   28.2249 N   0  0  0  0  0  0  0  0  0  0  0  0
   -6.0119  -15.5355   30.1490 H   0  0  0  0  0  0  0  0  0  0  0  0
   -3.0276  -15.1325   30.6579 H   0  0  0  0  0  0  0  0  0  0  0  0
   -2.7822  -15.3658   28.6982 H   0  0  0  0  0  0  0  0  0  0  0  0
   -3.4752  -11.4545   29.8407 H   0  0  0  0  0  0  0  0  0  0  0  0
   -0.2207  -11.6250   30.7159 H   0  0  0  0  0  0  0  0  0  0  0  0
   -0.4606   -8.5557   31.8549 H   0  0  0  0  0  0  0  0  0  0  0  0
    0.2353   -6.9399   29.9950 H   0  0  0  0  0  0  0  0  0  0  0  0
   -0.4754   -8.0811   27.8650 H   0  0  0  0  0  0  0  0  0  0  0  0
   -2.4551  -11.6166   27.3124 H   0  0  0  0  0  0  0  0  0  0  0  0
   -6.0631  -19.7422   26.7904 H   0  0  0  0  0  0  0  0  0  0  0  0
   -7.0069  -22.6731   27.5187 H   0  0  0  0  0  0  0  0  0  0  0  0
   -9.2815  -24.2136   27.8281 H   0  0  0  0  0  0  0  0  0  0  0  0
  -11.3962  -23.1640   28.2082 H   0  0  0  0  0  0  0  0  0  0  0  0
  -11.8003  -20.7235   28.2216 H   0  0  0  0  0  0  0  0  0  0  0  0
  1  2  2  0
  2  3  1  0
  3  4  1  0
  4  5  1  0
  5  6  2  0
  6  7  1  0
  7  8  2  0
  8  9  1  0
  9 10  1  0
 10 11  2  0
 11 12  1  0
 12 13  2  0
  2 14  1  0
 14 15  2  0
 15 16  1  0
 16 17  1  0
 17 18  2  0
 18 19  1  0
 19 20  2  0
 20 21  1  0
 21 22  2  0
 13  5  1  0
 22 14  1  0
 12  8  1  0
 21 16  1  0
  3 23  1  0
  4 24  1  0
  4 25  1  0
  6 26  1  0
  7 27  1  0
  9 28  1  0
 10 29  1  0
 11 30  1  0
 13 31  1  0
 15 32  1  0
 17 33  1  0
 18 34  1  0
 19 35  1  0
 20 36  1  0
M  END
>  <Energy>  (728) 
1304.2091934225327

>  <compound_id>  (728) 
5689

>  <target_id>  (728) 
1

>  <reference_id>  (728) 
40

>  <inspiration_ids>  (728) 
[45, 40]

>  <energy_score>  (728) 
1239.606665022085

>  <distance_score>  (728) 
6.75131221283703

>  <path>  (728) 
/opt/xchem-fragalysis-2/maxwin/BulkDock/SCRATCH/511018/C5689-P40/C5689-P40.minimised.mol

>  <scratch_subdir>  (728) 
/opt/xchem-fragalysis-2/maxwin/BulkDock/SCRATCH/511018/C5689-P40

>  <fragmenstein_runtime>  (728) 
24.138922214508057

>  <fragmenstein_outcome>  (728) 
too moved

>  <fragmenstein_mode>  (728) 
expansion

>  <fragmenstein_error>  (728) 


$$$$
C5691-P45
     RDKit          3D

 36 39  0  0  0  0  0  0  0  0999 V2000
   -4.6935  -16.3716   29.5482 O   0  0  0  0  0  0  0  0  0  0  0  0
   -3.6652  -16.3090   28.8517 C   0  0  0  0  0  0  0  0  0  0  0  0
   -2.4732  -14.8273   28.9228 N   0  0  0  0  0  0  0  0  0  0  0  0
   -2.6292  -13.0510   29.8712 C   0  0  0  0  0  0  0  0  0  0  0  0
   -1.9501  -11.1911   30.2682 C   0  0  0  0  0  0  0  0  0  0  0  0
   -2.3757  -10.2079   31.3371 C   0  0  0  0  0  0  0  0  0  0  0  0
   -1.8618   -8.8981   31.8378 C   0  0  0  0  0  0  0  0  0  0  0  0
   -1.0140   -8.2063   30.9725 C   0  0  0  0  0  0  0  0  0  0  0  0
   -0.5480   -6.9148   30.9638 N   0  0  0  0  0  0  0  0  0  0  0  0
   -0.2592   -6.5545   29.6698 C   0  0  0  0  0  0  0  0  0  0  0  0
   -0.3170   -7.6973   28.8978 C   0  0  0  0  0  0  0  0  0  0  0  0
   -0.6320   -8.8067   29.7660 C   0  0  0  0  0  0  0  0  0  0  0  0
   -0.9720  -10.2531   29.5137 C   0  0  0  0  0  0  0  0  0  0  0  0
   -3.6432  -17.7731   27.6272 C   0  0  0  0  0  0  0  0  0  0  0  0
   -5.3849  -18.4669   27.1841 N   0  0  0  0  0  0  0  0  0  0  0  0
   -6.3360  -19.7569   26.6944 C   0  0  0  0  0  0  0  0  0  0  0  0
   -7.4511  -20.9168   27.4611 C   0  0  0  0  0  0  0  0  0  0  0  0
   -7.4857  -22.2733   27.5742 C   0  0  0  0  0  0  0  0  0  0  0  0
   -6.3459  -22.9902   27.2156 C   0  0  0  0  0  0  0  0  0  0  0  0
   -5.3983  -22.0876   27.4523 C   0  0  0  0  0  0  0  0  0  0  0  0
   -5.4518  -20.4421   27.1426 N   0  0  0  0  0  0  0  0  0  0  0  0
   -4.9558  -18.7493   27.8786 C   0  0  0  0  0  0  0  0  0  0  0  0
   -5.8651  -17.9030   28.9618 F   0  0  0  0  0  0  0  0  0  0  0  0
   -1.7555  -14.9471   28.2186 H   0  0  0  0  0  0  0  0  0  0  0  0
   -3.7110  -12.9989   30.1288 H   0  0  0  0  0  0  0  0  0  0  0  0
   -2.9137  -12.4765   28.9666 H   0  0  0  0  0  0  0  0  0  0  0  0
   -3.3588  -10.3340   31.7832 H   0  0  0  0  0  0  0  0  0  0  0  0
   -2.3349   -8.4152   32.6874 H   0  0  0  0  0  0  0  0  0  0  0  0
   -0.5737   -6.2845   31.7543 H   0  0  0  0  0  0  0  0  0  0  0  0
   -0.0016   -5.5335   29.4227 H   0  0  0  0  0  0  0  0  0  0  0  0
   -0.1061   -7.7495   27.8392 H   0  0  0  0  0  0  0  0  0  0  0  0
   -0.6386  -10.4601   28.5059 H   0  0  0  0  0  0  0  0  0  0  0  0
   -8.0622  -20.2803   28.0333 H   0  0  0  0  0  0  0  0  0  0  0  0
   -8.2443  -22.8051   28.1363 H   0  0  0  0  0  0  0  0  0  0  0  0
   -6.2625  -24.0275   27.5221 H   0  0  0  0  0  0  0  0  0  0  0  0
   -4.8050  -22.4879   28.2540 H   0  0  0  0  0  0  0  0  0  0  0  0
  1  2  2  0
  2  3  1  0
  3  4  1  0
  4  5  1  0
  5  6  2  0
  6  7  1  0
  7  8  2  0
  8  9  1  0
  9 10  1  0
 10 11  2  0
 11 12  1  0
 12 13  2  0
  2 14  1  0
 14 15  1  0
 15 16  2  0
 16 17  1  0
 17 18  2  0
 18 19  1  0
 19 20  2  0
 20 21  1  0
 21 22  1  0
 22 23  1  0
 13  5  1  0
 22 14  2  0
 12  8  1  0
 21 16  1  0
  3 24  1  0
  4 25  1  0
  4 26  1  0
  6 27  1  0
  7 28  1  0
  9 29  1  0
 10 30  1  0
 11 31  1  0
 13 32  1  0
 17 33  1  0
 18 34  1  0
 19 35  1  0
 20 36  1  0
M  END
>  <Energy>  (729) 
1295.0656781127811

>  <compound_id>  (729) 
5691

>  <target_id>  (729) 
1

>  <reference_id>  (729) 
45

>  <inspiration_ids>  (729) 
[45, 40]

>  <energy_score>  (729) 
1235.7337599462007

>  <distance_score>  (729) 
5.950838301611108

>  <path>  (729) 
/opt/xchem-fragalysis-2/maxwin/BulkDock/SCRATCH/511018/C5691-P45/C5691-P45.minimised.mol

>  <scratch_subdir>  (729) 
/opt/xchem-fragalysis-2/maxwin/BulkDock/SCRATCH/511018/C5691-P45

>  <fragmenstein_runtime>  (729) 
9.283628940582275

>  <fragmenstein_outcome>  (729) 
too moved

>  <fragmenstein_mode>  (729) 
expansion

>  <fragmenstein_error>  (729) 


$$$$
C5691-P40
     RDKit          3D

 36 39  0  0  0  0  0  0  0  0999 V2000
   -2.7364  -18.2124   27.3221 O   0  0  0  0  0  0  0  0  0  0  0  0
   -3.8038  -17.7819   27.7526 C   0  0  0  0  0  0  0  0  0  0  0  0
   -3.9117  -16.1383   28.5126 N   0  0  0  0  0  0  0  0  0  0  0  0
   -2.5395  -14.6360   28.7245 C   0  0  0  0  0  0  0  0  0  0  0  0
   -2.5614  -12.5420   28.9526 C   0  0  0  0  0  0  0  0  0  0  0  0
   -1.9714  -11.6409   29.9176 C   0  0  0  0  0  0  0  0  0  0  0  0
   -1.2760  -10.2929   30.7601 C   0  0  0  0  0  0  0  0  0  0  0  0
   -0.6777   -9.3924   30.0973 C   0  0  0  0  0  0  0  0  0  0  0  0
   -0.1021   -8.2425   30.5266 N   0  0  0  0  0  0  0  0  0  0  0  0
    0.2641   -7.5911   29.4328 C   0  0  0  0  0  0  0  0  0  0  0  0
   -0.3447   -8.4000   28.5089 C   0  0  0  0  0  0  0  0  0  0  0  0
   -0.8498   -9.8408   28.8292 C   0  0  0  0  0  0  0  0  0  0  0  0
   -1.9850  -11.2513   28.2892 C   0  0  0  0  0  0  0  0  0  0  0  0
   -5.4379  -19.0269   27.3468 C   0  0  0  0  0  0  0  0  0  0  0  0
   -4.9372  -20.5071   26.1863 N   0  0  0  0  0  0  0  0  0  0  0  0
   -5.2475  -22.1580   26.5557 C   0  0  0  0  0  0  0  0  0  0  0  0
   -4.4905  -23.8957   26.4257 C   0  0  0  0  0  0  0  0  0  0  0  0
   -4.1298  -24.6737   27.3710 C   0  0  0  0  0  0  0  0  0  0  0  0
   -4.4513  -24.0120   28.7145 C   0  0  0  0  0  0  0  0  0  0  0  0
   -4.9642  -22.7781   28.7696 C   0  0  0  0  0  0  0  0  0  0  0  0
   -5.6026  -21.9802   27.7851 N   0  0  0  0  0  0  0  0  0  0  0  0
   -6.1196  -20.7210   27.4079 C   0  0  0  0  0  0  0  0  0  0  0  0
   -7.5256  -20.9374   27.4074 F   0  0  0  0  0  0  0  0  0  0  0  0
   -4.8484  -16.0175   28.8809 H   0  0  0  0  0  0  0  0  0  0  0  0
   -1.9701  -15.0332   29.5399 H   0  0  0  0  0  0  0  0  0  0  0  0
   -2.0285  -14.7798   27.7675 H   0  0  0  0  0  0  0  0  0  0  0  0
   -1.1904  -11.9771   30.6333 H   0  0  0  0  0  0  0  0  0  0  0  0
   -1.2951  -10.1642   31.8241 H   0  0  0  0  0  0  0  0  0  0  0  0
    0.0090   -7.9569   31.4932 H   0  0  0  0  0  0  0  0  0  0  0  0
    0.6794   -6.5913   29.4135 H   0  0  0  0  0  0  0  0  0  0  0  0
   -0.5682   -7.9351   27.6104 H   0  0  0  0  0  0  0  0  0  0  0  0
   -2.1223  -11.3013   27.1901 H   0  0  0  0  0  0  0  0  0  0  0  0
   -4.0884  -24.4351   25.4687 H   0  0  0  0  0  0  0  0  0  0  0  0
   -3.7962  -25.6616   27.0420 H   0  0  0  0  0  0  0  0  0  0  0  0
   -4.9796  -24.7270   29.3250 H   0  0  0  0  0  0  0  0  0  0  0  0
   -4.5113  -22.4076   29.6394 H   0  0  0  0  0  0  0  0  0  0  0  0
  1  2  2  0
  2  3  1  0
  3  4  1  0
  4  5  1  0
  5  6  2  0
  6  7  1  0
  7  8  2  0
  8  9  1  0
  9 10  1  0
 10 11  2  0
 11 12  1  0
 12 13  2  0
  2 14  1  0
 14 15  1  0
 15 16  2  0
 16 17  1  0
 17 18  2  0
 18 19  1  0
 19 20  2  0
 20 21  1  0
 21 22  1  0
 22 23  1  0
 13  5  1  0
 22 14  2  0
 12  8  1  0
 21 16  1  0
  3 24  1  0
  4 25  1  0
  4 26  1  0
  6 27  1  0
  7 28  1  0
  9 29  1  0
 10 30  1  0
 11 31  1  0
 13 32  1  0
 17 33  1  0
 18 34  1  0
 19 35  1  0
 20 36  1  0
M  END
>  <Energy>  (730) 
1335.277587023048

>  <compound_id>  (730) 
5691

>  <target_id>  (730) 
1

>  <reference_id>  (730) 
40

>  <inspiration_ids>  (730) 
[45, 40]

>  <energy_score>  (730) 
1275.9456688564896

>  <distance_score>  (730) 
6.107576754434508

>  <path>  (730) 
/opt/xchem-fragalysis-2/maxwin/BulkDock/SCRATCH/511018/C5691-P40/C5691-P40.minimised.mol

>  <scratch_subdir>  (730) 
/opt/xchem-fragalysis-2/maxwin/BulkDock/SCRATCH/511018/C5691-P40

>  <fragmenstein_runtime>  (730) 
11.895701169967651

>  <fragmenstein_outcome>  (730) 
too moved

>  <fragmenstein_mode>  (730) 
expansion

>  <fragmenstein_error>  (730) 


$$$$
C5692-P45
     RDKit          3D

 39 42  0  0  0  0  0  0  0  0999 V2000
   -5.7878  -11.4839   31.2369 C   0  0  0  0  0  0  0  0  0  0  0  0
   -5.3185  -12.9223   30.9197 N   0  0  0  0  0  0  0  0  0  0  0  0
   -5.9411  -14.1270   29.7689 C   0  0  0  0  0  0  0  0  0  0  0  0
   -6.8338  -13.8905   28.9593 O   0  0  0  0  0  0  0  0  0  0  0  0
   -5.4593  -16.1093   29.7034 C   0  0  0  0  0  0  0  0  0  0  0  0
   -6.0097  -17.7304   28.7115 C   0  0  0  0  0  0  0  0  0  0  0  0
   -4.9379  -18.6775   27.7679 C   0  0  0  0  0  0  0  0  0  0  0  0
   -5.5353  -20.3901   27.0973 N   0  0  0  0  0  0  0  0  0  0  0  0
   -5.3425  -22.0393   27.4065 C   0  0  0  0  0  0  0  0  0  0  0  0
   -6.1517  -23.0808   27.2155 C   0  0  0  0  0  0  0  0  0  0  0  0
   -7.4191  -22.6386   27.5743 C   0  0  0  0  0  0  0  0  0  0  0  0
   -7.6526  -21.3102   27.5550 C   0  0  0  0  0  0  0  0  0  0  0  0
   -6.7549  -20.0617   26.9440 C   0  0  0  0  0  0  0  0  0  0  0  0
   -5.7289  -18.7539   27.2167 N   0  0  0  0  0  0  0  0  0  0  0  0
   -3.9068  -11.7042   30.7290 C   0  0  0  0  0  0  0  0  0  0  0  0
   -3.6277  -10.2399   31.7673 C   0  0  0  0  0  0  0  0  0  0  0  0
   -2.6291   -9.3019   32.1658 C   0  0  0  0  0  0  0  0  0  0  0  0
   -1.6159   -9.3890   31.2893 C   0  0  0  0  0  0  0  0  0  0  0  0
   -0.8037   -8.2971   30.9288 N   0  0  0  0  0  0  0  0  0  0  0  0
   -0.4682   -8.4575   29.6208 C   0  0  0  0  0  0  0  0  0  0  0  0
   -0.5501   -9.8117   29.3379 C   0  0  0  0  0  0  0  0  0  0  0  0
   -1.5171  -10.4520   30.2913 C   0  0  0  0  0  0  0  0  0  0  0  0
   -2.6956  -11.6431   30.0546 C   0  0  0  0  0  0  0  0  0  0  0  0
   -6.2081  -10.7489   30.5083 H   0  0  0  0  0  0  0  0  0  0  0  0
   -5.5616  -11.0679   32.1826 H   0  0  0  0  0  0  0  0  0  0  0  0
   -6.7208  -11.7684   31.7935 H   0  0  0  0  0  0  0  0  0  0  0  0
   -5.8018  -16.3506   30.7074 H   0  0  0  0  0  0  0  0  0  0  0  0
   -4.3756  -16.2975   29.7789 H   0  0  0  0  0  0  0  0  0  0  0  0
   -3.7751  -18.5139   27.7121 H   0  0  0  0  0  0  0  0  0  0  0  0
   -4.8469  -22.3172   28.3261 H   0  0  0  0  0  0  0  0  0  0  0  0
   -5.8822  -24.0810   27.5490 H   0  0  0  0  0  0  0  0  0  0  0  0
   -8.1593  -23.3582   27.9092 H   0  0  0  0  0  0  0  0  0  0  0  0
   -8.7019  -21.0990   27.7157 H   0  0  0  0  0  0  0  0  0  0  0  0
   -4.5043   -9.7973   32.2961 H   0  0  0  0  0  0  0  0  0  0  0  0
   -2.8044   -8.4830   32.8428 H   0  0  0  0  0  0  0  0  0  0  0  0
   -0.7270   -7.4345   31.4536 H   0  0  0  0  0  0  0  0  0  0  0  0
   -0.0983   -7.6252   29.0363 H   0  0  0  0  0  0  0  0  0  0  0  0
   -0.2580  -10.1841   28.3719 H   0  0  0  0  0  0  0  0  0  0  0  0
   -2.7297  -12.2049   29.1451 H   0  0  0  0  0  0  0  0  0  0  0  0
  1  2  1  0
  2  3  1  0
  3  4  2  0
  3  5  1  0
  5  6  1  0
  6  7  2  0
  7  8  1  0
  8  9  1  0
  9 10  2  0
 10 11  1  0
 11 12  2  0
 12 13  1  0
 13 14  2  0
  2 15  1  0
 15 16  2  0
 16 17  1  0
 17 18  2  0
 18 19  1  0
 19 20  1  0
 20 21  2  0
 21 22  1  0
 22 23  2  0
 14  6  1  0
 23 15  1  0
 13  8  1  0
 22 18  1  0
  1 24  1  0
  1 25  1  0
  1 26  1  0
  5 27  1  0
  5 28  1  0
  7 29  1  0
  9 30  1  0
 10 31  1  0
 11 32  1  0
 12 33  1  0
 16 34  1  0
 17 35  1  0
 19 36  1  0
 20 37  1  0
 21 38  1  0
 23 39  1  0
M  END
>  <Energy>  (731) 
1226.9999105690729

>  <compound_id>  (731) 
5692

>  <target_id>  (731) 
1

>  <reference_id>  (731) 
45

>  <inspiration_ids>  (731) 
[45, 40]

>  <energy_score>  (731) 
1134.8454891633282

>  <distance_score>  (731) 
6.2208967228258745

>  <path>  (731) 
/opt/xchem-fragalysis-2/maxwin/BulkDock/SCRATCH/511018/C5692-P45/C5692-P45.minimised.mol

>  <scratch_subdir>  (731) 
/opt/xchem-fragalysis-2/maxwin/BulkDock/SCRATCH/511018/C5692-P45

>  <fragmenstein_runtime>  (731) 
19.010196685791016

>  <fragmenstein_outcome>  (731) 
too moved

>  <fragmenstein_mode>  (731) 
expansion

>  <fragmenstein_error>  (731) 


$$$$
C5692-P40
     RDKit          3D

 39 42  0  0  0  0  0  0  0  0999 V2000
   -0.1366  -11.6343   31.0835 C   0  0  0  0  0  0  0  0  0  0  0  0
   -1.5417  -12.4524   31.6695 N   0  0  0  0  0  0  0  0  0  0  0  0
   -1.9679  -14.5020   31.8912 C   0  0  0  0  0  0  0  0  0  0  0  0
   -0.9729  -15.1643   31.6270 O   0  0  0  0  0  0  0  0  0  0  0  0
   -2.9875  -15.3629   32.1128 C   0  0  0  0  0  0  0  0  0  0  0  0
   -1.5804  -16.8303   32.5674 C   0  0  0  0  0  0  0  0  0  0  0  0
   -0.2347  -16.8367   33.0247 C   0  0  0  0  0  0  0  0  0  0  0  0
    0.2593  -18.0896   32.7031 N   0  0  0  0  0  0  0  0  0  0  0  0
    1.5715  -18.5202   32.5166 C   0  0  0  0  0  0  0  0  0  0  0  0
    1.8022  -19.7657   32.0645 C   0  0  0  0  0  0  0  0  0  0  0  0
    0.6743  -20.6359   31.8022 C   0  0  0  0  0  0  0  0  0  0  0  0
   -0.5828  -20.2399   32.0720 C   0  0  0  0  0  0  0  0  0  0  0  0
   -0.8226  -18.9101   32.4955 C   0  0  0  0  0  0  0  0  0  0  0  0
   -1.9378  -18.2278   32.5477 N   0  0  0  0  0  0  0  0  0  0  0  0
   -1.6798  -11.1562   30.1274 C   0  0  0  0  0  0  0  0  0  0  0  0
   -1.8010   -9.7234   31.2552 C   0  0  0  0  0  0  0  0  0  0  0  0
   -1.4236   -8.3129   31.5354 C   0  0  0  0  0  0  0  0  0  0  0  0
   -0.5836   -7.7998   30.6105 C   0  0  0  0  0  0  0  0  0  0  0  0
   -0.0028   -6.5633   30.5238 N   0  0  0  0  0  0  0  0  0  0  0  0
    0.7869   -6.5268   29.4166 C   0  0  0  0  0  0  0  0  0  0  0  0
    0.6770   -7.7592   28.8107 C   0  0  0  0  0  0  0  0  0  0  0  0
   -0.2023   -8.6003   29.5487 C   0  0  0  0  0  0  0  0  0  0  0  0
   -0.7968  -10.0486   29.4284 C   0  0  0  0  0  0  0  0  0  0  0  0
    0.3285  -11.7555   30.1058 H   0  0  0  0  0  0  0  0  0  0  0  0
    0.8740  -12.0827   31.4858 H   0  0  0  0  0  0  0  0  0  0  0  0
   -0.3927  -10.7128   31.5610 H   0  0  0  0  0  0  0  0  0  0  0  0
   -3.0735  -15.2619   31.0055 H   0  0  0  0  0  0  0  0  0  0  0  0
   -3.7531  -16.0673   31.7617 H   0  0  0  0  0  0  0  0  0  0  0  0
    0.4394  -16.0321   33.2785 H   0  0  0  0  0  0  0  0  0  0  0  0
    2.3593  -17.8042   32.7106 H   0  0  0  0  0  0  0  0  0  0  0  0
    2.8067  -20.1308   31.8805 H   0  0  0  0  0  0  0  0  0  0  0  0
    0.8992  -21.6005   31.3672 H   0  0  0  0  0  0  0  0  0  0  0  0
   -1.4586  -20.8370   31.8684 H   0  0  0  0  0  0  0  0  0  0  0  0
   -2.2723   -9.8628   32.2311 H   0  0  0  0  0  0  0  0  0  0  0  0
   -1.7392   -7.8068   32.4412 H   0  0  0  0  0  0  0  0  0  0  0  0
   -0.1279   -5.8110   31.1911 H   0  0  0  0  0  0  0  0  0  0  0  0
    1.3627   -5.6444   29.1645 H   0  0  0  0  0  0  0  0  0  0  0  0
    1.2601   -8.0089   27.9471 H   0  0  0  0  0  0  0  0  0  0  0  0
   -0.7199  -10.2794   28.3908 H   0  0  0  0  0  0  0  0  0  0  0  0
  1  2  1  0
  2  3  1  0
  3  4  2  0
  3  5  1  0
  5  6  1  0
  6  7  2  0
  7  8  1  0
  8  9  1  0
  9 10  2  0
 10 11  1  0
 11 12  2  0
 12 13  1  0
 13 14  2  0
  2 15  1  0
 15 16  2  0
 16 17  1  0
 17 18  2  0
 18 19  1  0
 19 20  1  0
 20 21  2  0
 21 22  1  0
 22 23  2  0
 14  6  1  0
 23 15  1  0
 13  8  1  0
 22 18  1  0
  1 24  1  0
  1 25  1  0
  1 26  1  0
  5 27  1  0
  5 28  1  0
  7 29  1  0
  9 30  1  0
 10 31  1  0
 11 32  1  0
 12 33  1  0
 16 34  1  0
 17 35  1  0
 19 36  1  0
 20 37  1  0
 21 38  1  0
 23 39  1  0
M  END
>  <Energy>  (732) 
975.60683802030621

>  <compound_id>  (732) 
5692

>  <target_id>  (732) 
1

>  <reference_id>  (732) 
40

>  <inspiration_ids>  (732) 
[45, 40]

>  <energy_score>  (732) 
883.4524166145711

>  <distance_score>  (732) 
8.627159970042063

>  <path>  (732) 
/opt/xchem-fragalysis-2/maxwin/BulkDock/SCRATCH/511018/C5692-P40/C5692-P40.minimised.mol

>  <scratch_subdir>  (732) 
/opt/xchem-fragalysis-2/maxwin/BulkDock/SCRATCH/511018/C5692-P40

>  <fragmenstein_runtime>  (732) 
19.02778935432434

>  <fragmenstein_outcome>  (732) 
too moved

>  <fragmenstein_mode>  (732) 
expansion

>  <fragmenstein_error>  (732) 


$$$$
C5675-P45
     RDKit          3D

 38 41  0  0  0  0  0  0  0  0999 V2000
   -4.2739  -15.8964   30.2008 O   0  0  0  0  0  0  0  0  0  0  0  0
   -3.4469  -15.7554   29.4336 C   0  0  0  0  0  0  0  0  0  0  0  0
   -3.4397  -17.1155   28.1022 N   0  0  0  0  0  0  0  0  0  0  0  0
   -4.7799  -18.6439   27.7448 C   0  0  0  0  0  0  0  0  0  0  0  0
   -5.6552  -20.4671   27.1454 C   0  0  0  0  0  0  0  0  0  0  0  0
   -5.3282  -22.0032   27.3401 C   0  0  0  0  0  0  0  0  0  0  0  0
   -6.2435  -23.0194   27.1197 N   0  0  0  0  0  0  0  0  0  0  0  0
   -6.0392  -24.3876   26.9054 C   0  0  0  0  0  0  0  0  0  0  0  0
   -7.0490  -25.2429   27.1199 C   0  0  0  0  0  0  0  0  0  0  0  0
   -6.9079  -26.9359   26.8696 Cl  0  0  0  0  0  0  0  0  0  0  0  0
   -8.2803  -24.7237   27.6682 C   0  0  0  0  0  0  0  0  0  0  0  0
   -8.4155  -23.4096   27.9331 C   0  0  0  0  0  0  0  0  0  0  0  0
   -7.3726  -22.4642   27.6079 C   0  0  0  0  0  0  0  0  0  0  0  0
   -7.2164  -21.1159   27.5818 N   0  0  0  0  0  0  0  0  0  0  0  0
   -2.5325  -14.1146   29.4081 N   0  0  0  0  0  0  0  0  0  0  0  0
   -2.8906  -12.4290   30.3231 C   0  0  0  0  0  0  0  0  0  0  0  0
   -4.0392  -11.7588   30.8138 C   0  0  0  0  0  0  0  0  0  0  0  0
   -3.9540  -10.2515   31.8626 C   0  0  0  0  0  0  0  0  0  0  0  0
   -2.8554   -9.4293   32.1581 C   0  0  0  0  0  0  0  0  0  0  0  0
   -2.4922   -8.4531   33.0254 N   0  0  0  0  0  0  0  0  0  0  0  0
   -1.4837   -7.7116   32.4676 C   0  0  0  0  0  0  0  0  0  0  0  0
   -1.0898   -8.3841   31.3349 C   0  0  0  0  0  0  0  0  0  0  0  0
   -1.8034   -9.6577   31.3340 C   0  0  0  0  0  0  0  0  0  0  0  0
   -1.9402  -10.9205   30.4699 C   0  0  0  0  0  0  0  0  0  0  0  0
   -2.6299  -16.9723   27.5086 H   0  0  0  0  0  0  0  0  0  0  0  0
   -5.4916  -18.1465   28.4914 H   0  0  0  0  0  0  0  0  0  0  0  0
   -5.4570  -18.2514   27.1207 H   0  0  0  0  0  0  0  0  0  0  0  0
   -4.8256  -22.4190   28.1947 H   0  0  0  0  0  0  0  0  0  0  0  0
   -5.0581  -24.7131   26.5896 H   0  0  0  0  0  0  0  0  0  0  0  0
   -9.0961  -25.4128   27.8634 H   0  0  0  0  0  0  0  0  0  0  0  0
   -9.3670  -23.0368   28.2939 H   0  0  0  0  0  0  0  0  0  0  0  0
   -1.7740  -14.1714   28.7369 H   0  0  0  0  0  0  0  0  0  0  0  0
   -5.0203  -12.2176   30.7243 H   0  0  0  0  0  0  0  0  0  0  0  0
   -4.9492   -9.9671   32.2861 H   0  0  0  0  0  0  0  0  0  0  0  0
   -2.9269   -8.2842   33.9212 H   0  0  0  0  0  0  0  0  0  0  0  0
   -1.1270   -6.7965   32.9240 H   0  0  0  0  0  0  0  0  0  0  0  0
   -0.3057   -8.0724   30.6550 H   0  0  0  0  0  0  0  0  0  0  0  0
   -1.2224  -10.6809   29.6687 H   0  0  0  0  0  0  0  0  0  0  0  0
  1  2  2  0
  2  3  1  0
  3  4  1  0
  4  5  1  0
  5  6  2  0
  6  7  1  0
  7  8  1  0
  8  9  2  0
  9 10  1  0
  9 11  1  0
 11 12  2  0
 12 13  1  0
 13 14  2  0
  2 15  1  0
 15 16  1  0
 16 17  2  0
 17 18  1  0
 18 19  2  0
 19 20  1  0
 20 21  1  0
 21 22  2  0
 22 23  1  0
 23 24  2  0
 14  5  1  0
 24 16  1  0
 13  7  1  0
 23 19  1  0
  3 25  1  0
  4 26  1  0
  4 27  1  0
  6 28  1  0
  8 29  1  0
 11 30  1  0
 12 31  1  0
 15 32  1  0
 17 33  1  0
 18 34  1  0
 20 35  1  0
 21 36  1  0
 22 37  1  0
 24 38  1  0
M  END
>  <Energy>  (733) 
834.24753362722527

>  <compound_id>  (733) 
5675

>  <target_id>  (733) 
1

>  <reference_id>  (733) 
45

>  <inspiration_ids>  (733) 
[45, 40]

>  <energy_score>  (733) 
856.8927632765987

>  <distance_score>  (733) 
5.989773747599243

>  <path>  (733) 
/opt/xchem-fragalysis-2/maxwin/BulkDock/SCRATCH/511018/C5675-P45/C5675-P45.minimised.mol

>  <scratch_subdir>  (733) 
/opt/xchem-fragalysis-2/maxwin/BulkDock/SCRATCH/511018/C5675-P45

>  <fragmenstein_runtime>  (733) 
20.84954833984375

>  <fragmenstein_outcome>  (733) 
too moved

>  <fragmenstein_mode>  (733) 
expansion

>  <fragmenstein_error>  (733) 


$$$$
C5675-P40
     RDKit          3D

 38 41  0  0  0  0  0  0  0  0999 V2000
   -8.9459  -15.4231   23.1018 O   0  0  0  0  0  0  0  0  0  0  0  0
   -9.3793  -14.8580   24.0379 C   0  0  0  0  0  0  0  0  0  0  0  0
  -10.6314  -15.1256   24.8418 N   0  0  0  0  0  0  0  0  0  0  0  0
  -11.7091  -16.0902   24.6337 C   0  0  0  0  0  0  0  0  0  0  0  0
  -11.7433  -17.4619   25.2753 C   0  0  0  0  0  0  0  0  0  0  0  0
  -12.1005  -18.6376   24.6199 C   0  0  0  0  0  0  0  0  0  0  0  0
  -12.2634  -19.6081   25.5793 N   0  0  0  0  0  0  0  0  0  0  0  0
  -12.6326  -20.9452   25.4385 C   0  0  0  0  0  0  0  0  0  0  0  0
  -12.6733  -21.7291   26.5282 C   0  0  0  0  0  0  0  0  0  0  0  0
  -13.1527  -23.3722   26.4342 Cl  0  0  0  0  0  0  0  0  0  0  0  0
  -12.3326  -21.1605   27.8214 C   0  0  0  0  0  0  0  0  0  0  0  0
  -12.0245  -19.8525   27.9509 C   0  0  0  0  0  0  0  0  0  0  0  0
  -11.9819  -19.0033   26.8011 C   0  0  0  0  0  0  0  0  0  0  0  0
  -11.6952  -17.7157   26.6437 N   0  0  0  0  0  0  0  0  0  0  0  0
   -8.8953  -13.5828   24.7264 N   0  0  0  0  0  0  0  0  0  0  0  0
   -7.8538  -12.6786   24.3767 C   0  0  0  0  0  0  0  0  0  0  0  0
   -7.7653  -11.4347   25.0166 C   0  0  0  0  0  0  0  0  0  0  0  0
   -6.7179  -10.5109   24.8102 C   0  0  0  0  0  0  0  0  0  0  0  0
   -5.7288  -10.8776   23.9012 C   0  0  0  0  0  0  0  0  0  0  0  0
   -4.5861  -10.2255   23.4927 N   0  0  0  0  0  0  0  0  0  0  0  0
   -3.8929  -11.0098   22.6131 C   0  0  0  0  0  0  0  0  0  0  0  0
   -4.6195  -12.1550   22.4019 C   0  0  0  0  0  0  0  0  0  0  0  0
   -5.7917  -12.0824   23.2003 C   0  0  0  0  0  0  0  0  0  0  0  0
   -6.8876  -12.9650   23.4123 C   0  0  0  0  0  0  0  0  0  0  0  0
  -10.6612  -14.5041   25.6271 H   0  0  0  0  0  0  0  0  0  0  0  0
  -11.7654  -16.2278   23.5466 H   0  0  0  0  0  0  0  0  0  0  0  0
  -12.6267  -15.5702   24.9333 H   0  0  0  0  0  0  0  0  0  0  0  0
  -12.2872  -18.8413   23.5749 H   0  0  0  0  0  0  0  0  0  0  0  0
  -12.8644  -21.2942   24.4409 H   0  0  0  0  0  0  0  0  0  0  0  0
  -12.3668  -21.8097   28.6913 H   0  0  0  0  0  0  0  0  0  0  0  0
  -11.8178  -19.4166   28.9192 H   0  0  0  0  0  0  0  0  0  0  0  0
   -9.4450  -13.4187   25.5487 H   0  0  0  0  0  0  0  0  0  0  0  0
   -8.5642  -11.1286   25.6736 H   0  0  0  0  0  0  0  0  0  0  0  0
   -6.6931   -9.5668   25.3432 H   0  0  0  0  0  0  0  0  0  0  0  0
   -4.2949   -9.3091   23.8118 H   0  0  0  0  0  0  0  0  0  0  0  0
   -2.9451  -10.7081   22.1991 H   0  0  0  0  0  0  0  0  0  0  0  0
   -4.3337  -12.9701   21.7502 H   0  0  0  0  0  0  0  0  0  0  0  0
   -6.9156  -13.9029   22.8648 H   0  0  0  0  0  0  0  0  0  0  0  0
  1  2  2  0
  2  3  1  0
  3  4  1  0
  4  5  1  0
  5  6  2  0
  6  7  1  0
  7  8  1  0
  8  9  2  0
  9 10  1  0
  9 11  1  0
 11 12  2  0
 12 13  1  0
 13 14  2  0
  2 15  1  0
 15 16  1  0
 16 17  2  0
 17 18  1  0
 18 19  2  0
 19 20  1  0
 20 21  1  0
 21 22  2  0
 22 23  1  0
 23 24  2  0
 14  5  1  0
 24 16  1  0
 13  7  1  0
 23 19  1  0
  3 25  1  0
  4 26  1  0
  4 27  1  0
  6 28  1  0
  8 29  1  0
 11 30  1  0
 12 31  1  0
 15 32  1  0
 17 33  1  0
 18 34  1  0
 20 35  1  0
 21 36  1  0
 22 37  1  0
 24 38  1  0
M  END
>  <Energy>  (734) 
-14.371022597673241

>  <compound_id>  (734) 
5675

>  <target_id>  (734) 
1

>  <reference_id>  (734) 
40

>  <inspiration_ids>  (734) 
[45, 40]

>  <energy_score>  (734) 
8.274207051726194

>  <distance_score>  (734) 
10.456076060109595

>  <path>  (734) 
/opt/xchem-fragalysis-2/maxwin/BulkDock/SCRATCH/511018/C5675-P40/C5675-P40.minimised.mol

>  <scratch_subdir>  (734) 
/opt/xchem-fragalysis-2/maxwin/BulkDock/SCRATCH/511018/C5675-P40

>  <fragmenstein_runtime>  (734) 
20.888689279556274

>  <fragmenstein_outcome>  (734) 
too moved

>  <fragmenstein_mode>  (734) 
expansion

>  <fragmenstein_error>  (734) 


$$$$
C5696-P45
     RDKit          3D

 49 52  0  0  0  0  0  0  0  0999 V2000
   -2.6794   -8.9051   35.2625 C   0  0  0  0  0  0  0  0  0  0  0  0
   -1.5835   -9.9045   34.4950 C   0  0  0  0  0  0  0  0  0  0  0  0
   -2.0537  -11.1951   33.9847 N   0  0  0  0  0  0  0  0  0  0  0  0
   -1.1221  -12.8740   33.6052 C   0  0  0  0  0  0  0  0  0  0  0  0
    0.1169  -12.8907   33.7115 O   0  0  0  0  0  0  0  0  0  0  0  0
   -1.8408  -14.8416   33.2398 C   0  0  0  0  0  0  0  0  0  0  0  0
   -2.5859  -17.0322   32.3022 S   0  0  0  0  0  0  0  0  0  0  0  0
   -2.3926  -19.5465   31.8565 C   0  0  0  0  0  0  0  0  0  0  0  0
   -2.7324  -21.1912   30.3729 C   0  0  0  0  0  0  0  0  0  0  0  0
   -3.6218  -22.7813   30.6236 C   0  0  0  0  0  0  0  0  0  0  0  0
   -4.3057  -23.7333   29.2181 N   0  0  0  0  0  0  0  0  0  0  0  0
   -4.3454  -24.8752   28.3186 C   0  0  0  0  0  0  0  0  0  0  0  0
   -5.3657  -25.1626   27.4814 C   0  0  0  0  0  0  0  0  0  0  0  0
   -5.4085  -26.4922   26.7966 C   0  0  0  0  0  0  0  0  0  0  0  0
   -6.4229  -24.1983   27.3473 C   0  0  0  0  0  0  0  0  0  0  0  0
   -6.2235  -22.9916   27.8976 C   0  0  0  0  0  0  0  0  0  0  0  0
   -5.0571  -22.7885   28.6724 C   0  0  0  0  0  0  0  0  0  0  0  0
   -4.3184  -21.9182   29.3650 N   0  0  0  0  0  0  0  0  0  0  0  0
   -2.3449   -9.9601   32.5471 C   0  0  0  0  0  0  0  0  0  0  0  0
   -2.9619   -8.7411   32.6950 C   0  0  0  0  0  0  0  0  0  0  0  0
   -2.1839   -7.5259   32.5539 C   0  0  0  0  0  0  0  0  0  0  0  0
   -1.2642   -7.4571   31.5503 C   0  0  0  0  0  0  0  0  0  0  0  0
   -0.5413   -6.4294   31.0120 N   0  0  0  0  0  0  0  0  0  0  0  0
   -0.2824   -6.7570   29.7076 C   0  0  0  0  0  0  0  0  0  0  0  0
   -0.4997   -8.1177   29.5895 C   0  0  0  0  0  0  0  0  0  0  0  0
   -1.0572   -8.5880   30.8122 C   0  0  0  0  0  0  0  0  0  0  0  0
   -1.6519   -9.8648   31.3213 C   0  0  0  0  0  0  0  0  0  0  0  0
   -3.0196   -8.0123   34.7613 H   0  0  0  0  0  0  0  0  0  0  0  0
   -3.5828   -9.4398   35.5815 H   0  0  0  0  0  0  0  0  0  0  0  0
   -2.1807   -8.3417   36.0631 H   0  0  0  0  0  0  0  0  0  0  0  0
   -0.9439  -10.3249   35.2347 H   0  0  0  0  0  0  0  0  0  0  0  0
   -1.1967   -9.1317   33.8310 H   0  0  0  0  0  0  0  0  0  0  0  0
   -1.7707  -15.1951   34.2604 H   0  0  0  0  0  0  0  0  0  0  0  0
   -1.0484  -14.9808   32.4965 H   0  0  0  0  0  0  0  0  0  0  0  0
   -2.6007  -19.7473   32.9157 H   0  0  0  0  0  0  0  0  0  0  0  0
   -1.2778  -19.6127   31.8911 H   0  0  0  0  0  0  0  0  0  0  0  0
   -3.8413  -23.3244   31.5393 H   0  0  0  0  0  0  0  0  0  0  0  0
   -3.5185  -25.5199   28.0907 H   0  0  0  0  0  0  0  0  0  0  0  0
   -6.3733  -26.6772   26.3218 H   0  0  0  0  0  0  0  0  0  0  0  0
   -5.2670  -27.3073   27.5131 H   0  0  0  0  0  0  0  0  0  0  0  0
   -4.5871  -26.5798   26.0885 H   0  0  0  0  0  0  0  0  0  0  0  0
   -7.3011  -24.4202   26.7536 H   0  0  0  0  0  0  0  0  0  0  0  0
   -6.9379  -22.1916   27.7751 H   0  0  0  0  0  0  0  0  0  0  0  0
   -3.8943   -8.7891   33.2506 H   0  0  0  0  0  0  0  0  0  0  0  0
   -2.3281   -6.6463   33.1632 H   0  0  0  0  0  0  0  0  0  0  0  0
   -0.4371   -5.5074   31.4140 H   0  0  0  0  0  0  0  0  0  0  0  0
    0.1170   -6.0281   29.0181 H   0  0  0  0  0  0  0  0  0  0  0  0
   -0.2787   -8.7133   28.7140 H   0  0  0  0  0  0  0  0  0  0  0  0
   -1.4296  -10.7438   30.7213 H   0  0  0  0  0  0  0  0  0  0  0  0
  1  2  1  0
  2  3  1  0
  3  4  1  0
  4  5  2  0
  4  6  1  0
  6  7  1  0
  7  8  1  0
  8  9  1  0
  9 10  2  0
 10 11  1  0
 11 12  1  0
 12 13  2  0
 13 14  1  0
 13 15  1  0
 15 16  2  0
 16 17  1  0
 17 18  2  0
  3 19  1  0
 19 20  2  0
 20 21  1  0
 21 22  2  0
 22 23  1  0
 23 24  1  0
 24 25  2  0
 25 26  1  0
 26 27  2  0
 18  9  1  0
 27 19  1  0
 17 11  1  0
 26 22  1  0
  1 28  1  0
  1 29  1  0
  1 30  1  0
  2 31  1  0
  2 32  1  0
  6 33  1  0
  6 34  1  0
  8 35  1  0
  8 36  1  0
 10 37  1  0
 12 38  1  0
 14 39  1  0
 14 40  1  0
 14 41  1  0
 15 42  1  0
 16 43  1  0
 20 44  1  0
 21 45  1  0
 23 46  1  0
 24 47  1  0
 25 48  1  0
 27 49  1  0
M  END
>  <Energy>  (735) 
1612.7043558356904

>  <compound_id>  (735) 
5696

>  <target_id>  (735) 
1

>  <reference_id>  (735) 
45

>  <inspiration_ids>  (735) 
[45, 40]

>  <energy_score>  (735) 
1490.0176640363686

>  <distance_score>  (735) 
4.417600179923003

>  <path>  (735) 
/opt/xchem-fragalysis-2/maxwin/BulkDock/SCRATCH/511018/C5696-P45/C5696-P45.minimised.mol

>  <scratch_subdir>  (735) 
/opt/xchem-fragalysis-2/maxwin/BulkDock/SCRATCH/511018/C5696-P45

>  <fragmenstein_runtime>  (735) 
21.66929054260254

>  <fragmenstein_outcome>  (735) 
too moved

>  <fragmenstein_mode>  (735) 
expansion

>  <fragmenstein_error>  (735) 


$$$$
C5696-P40
     RDKit          3D

 49 52  0  0  0  0  0  0  0  0999 V2000
   -0.1100   -7.6023   32.4543 C   0  0  0  0  0  0  0  0  0  0  0  0
   -1.0136   -8.7619   31.9710 C   0  0  0  0  0  0  0  0  0  0  0  0
   -1.6830   -9.5963   30.7609 N   0  0  0  0  0  0  0  0  0  0  0  0
   -1.4128  -11.2251   30.1549 C   0  0  0  0  0  0  0  0  0  0  0  0
   -0.5116  -11.7882   30.6686 O   0  0  0  0  0  0  0  0  0  0  0  0
   -2.4434  -12.5424   28.8664 C   0  0  0  0  0  0  0  0  0  0  0  0
   -2.2332  -15.0702   28.3491 S   0  0  0  0  0  0  0  0  0  0  0  0
   -2.7288  -17.2895   27.1616 C   0  0  0  0  0  0  0  0  0  0  0  0
   -3.2545  -19.3565   26.7847 C   0  0  0  0  0  0  0  0  0  0  0  0
   -4.4454  -20.3396   25.6213 C   0  0  0  0  0  0  0  0  0  0  0  0
   -5.1459  -21.9132   26.3227 N   0  0  0  0  0  0  0  0  0  0  0  0
   -4.6280  -23.7176   26.4028 C   0  0  0  0  0  0  0  0  0  0  0  0
   -4.0544  -24.3749   27.3438 C   0  0  0  0  0  0  0  0  0  0  0  0
   -3.5131  -25.6404   26.7071 C   0  0  0  0  0  0  0  0  0  0  0  0
   -4.4036  -23.6233   28.5716 C   0  0  0  0  0  0  0  0  0  0  0  0
   -5.2207  -22.4762   28.4970 C   0  0  0  0  0  0  0  0  0  0  0  0
   -5.7045  -21.3927   27.3600 C   0  0  0  0  0  0  0  0  0  0  0  0
   -5.2820  -19.7975   26.7747 N   0  0  0  0  0  0  0  0  0  0  0  0
   -0.8287   -8.3462   29.9246 C   0  0  0  0  0  0  0  0  0  0  0  0
   -1.2509   -7.0234   30.1932 C   0  0  0  0  0  0  0  0  0  0  0  0
   -0.4871   -5.8371   30.0094 C   0  0  0  0  0  0  0  0  0  0  0  0
    0.6824   -5.9591   29.2997 C   0  0  0  0  0  0  0  0  0  0  0  0
    1.5786   -4.9953   28.9065 N   0  0  0  0  0  0  0  0  0  0  0  0
    2.5411   -5.5641   28.1260 C   0  0  0  0  0  0  0  0  0  0  0  0
    2.2681   -6.9104   28.0509 C   0  0  0  0  0  0  0  0  0  0  0  0
    1.0824   -7.1944   28.8114 C   0  0  0  0  0  0  0  0  0  0  0  0
    0.3072   -8.3648   29.1736 C   0  0  0  0  0  0  0  0  0  0  0  0
    0.7797   -7.4235   31.8627 H   0  0  0  0  0  0  0  0  0  0  0  0
   -0.6673   -6.6674   32.5830 H   0  0  0  0  0  0  0  0  0  0  0  0
    0.2346   -7.8305   33.4724 H   0  0  0  0  0  0  0  0  0  0  0  0
   -0.5755   -9.5653   32.4931 H   0  0  0  0  0  0  0  0  0  0  0  0
   -1.9395   -8.5767   32.5417 H   0  0  0  0  0  0  0  0  0  0  0  0
   -2.6065  -11.9880   27.9090 H   0  0  0  0  0  0  0  0  0  0  0  0
   -3.4386  -12.3654   29.2630 H   0  0  0  0  0  0  0  0  0  0  0  0
   -1.7664  -17.6299   27.5534 H   0  0  0  0  0  0  0  0  0  0  0  0
   -2.4021  -16.9894   26.1537 H   0  0  0  0  0  0  0  0  0  0  0  0
   -4.2917  -20.5150   24.5559 H   0  0  0  0  0  0  0  0  0  0  0  0
   -4.2408  -24.1784   25.3807 H   0  0  0  0  0  0  0  0  0  0  0  0
   -3.3988  -25.5211   25.6408 H   0  0  0  0  0  0  0  0  0  0  0  0
   -4.1464  -26.5171   26.7989 H   0  0  0  0  0  0  0  0  0  0  0  0
   -2.4630  -25.7532   26.9256 H   0  0  0  0  0  0  0  0  0  0  0  0
   -4.6861  -24.2748   29.3527 H   0  0  0  0  0  0  0  0  0  0  0  0
   -4.8842  -22.1793   29.4117 H   0  0  0  0  0  0  0  0  0  0  0  0
   -2.1389   -6.9395   30.8070 H   0  0  0  0  0  0  0  0  0  0  0  0
   -0.8005   -4.8794   30.4144 H   0  0  0  0  0  0  0  0  0  0  0  0
    1.5005   -4.0078   29.1194 H   0  0  0  0  0  0  0  0  0  0  0  0
    3.3335   -4.9684   27.6901 H   0  0  0  0  0  0  0  0  0  0  0  0
    2.8690   -7.5971   27.4667 H   0  0  0  0  0  0  0  0  0  0  0  0
    0.6486   -9.3294   28.9712 H   0  0  0  0  0  0  0  0  0  0  0  0
  1  2  1  0
  2  3  1  0
  3  4  1  0
  4  5  2  0
  4  6  1  0
  6  7  1  0
  7  8  1  0
  8  9  1  0
  9 10  2  0
 10 11  1  0
 11 12  1  0
 12 13  2  0
 13 14  1  0
 13 15  1  0
 15 16  2  0
 16 17  1  0
 17 18  2  0
  3 19  1  0
 19 20  2  0
 20 21  1  0
 21 22  2  0
 22 23  1  0
 23 24  1  0
 24 25  2  0
 25 26  1  0
 26 27  2  0
 18  9  1  0
 27 19  1  0
 17 11  1  0
 26 22  1  0
  1 28  1  0
  1 29  1  0
  1 30  1  0
  2 31  1  0
  2 32  1  0
  6 33  1  0
  6 34  1  0
  8 35  1  0
  8 36  1  0
 10 37  1  0
 12 38  1  0
 14 39  1  0
 14 40  1  0
 14 41  1  0
 15 42  1  0
 16 43  1  0
 20 44  1  0
 21 45  1  0
 23 46  1  0
 24 47  1  0
 25 48  1  0
 27 49  1  0
M  END
>  <Energy>  (736) 
1710.6574946374251

>  <compound_id>  (736) 
5696

>  <target_id>  (736) 
1

>  <reference_id>  (736) 
40

>  <inspiration_ids>  (736) 
[45, 40]

>  <energy_score>  (736) 
1587.9708028381312

>  <distance_score>  (736) 
4.105026468530459

>  <path>  (736) 
/opt/xchem-fragalysis-2/maxwin/BulkDock/SCRATCH/511018/C5696-P40/C5696-P40.minimised.mol

>  <scratch_subdir>  (736) 
/opt/xchem-fragalysis-2/maxwin/BulkDock/SCRATCH/511018/C5696-P40

>  <fragmenstein_runtime>  (736) 
31.70852017402649

>  <fragmenstein_outcome>  (736) 
too moved

>  <fragmenstein_mode>  (736) 
expansion

>  <fragmenstein_error>  (736) 


$$$$
C5697-P45
     RDKit          3D

 41 44  0  0  0  0  0  0  0  0999 V2000
   -4.7969  -12.6685   29.9759 O   0  0  0  0  0  0  0  0  0  0  0  0
   -3.6673  -13.0768   30.0043 C   0  0  0  0  0  0  0  0  0  0  0  0
   -3.1065  -14.8793   29.6715 N   0  0  0  0  0  0  0  0  0  0  0  0
   -4.2101  -16.5059   29.0517 C   0  0  0  0  0  0  0  0  0  0  0  0
   -4.8942  -18.2347   27.7806 C   0  0  0  0  0  0  0  0  0  0  0  0
   -5.6977  -20.1048   27.0777 C   0  0  0  0  0  0  0  0  0  0  0  0
   -5.3460  -21.7463   27.2429 C   0  0  0  0  0  0  0  0  0  0  0  0
   -6.2321  -22.8231   27.0761 N   0  0  0  0  0  0  0  0  0  0  0  0
   -5.9895  -24.1907   26.8895 C   0  0  0  0  0  0  0  0  0  0  0  0
   -6.9537  -25.0846   27.1469 C   0  0  0  0  0  0  0  0  0  0  0  0
   -8.1865  -24.5944   27.7109 C   0  0  0  0  0  0  0  0  0  0  0  0
   -8.3596  -23.2803   27.9554 C   0  0  0  0  0  0  0  0  0  0  0  0
   -7.3590  -22.2951   27.5943 C   0  0  0  0  0  0  0  0  0  0  0  0
   -7.2375  -20.9290   27.5382 N   0  0  0  0  0  0  0  0  0  0  0  0
   -2.3049  -12.2457   30.2345 N   0  0  0  0  0  0  0  0  0  0  0  0
   -2.0368  -10.6484   30.6042 C   0  0  0  0  0  0  0  0  0  0  0  0
   -2.5143   -9.7814   31.6868 C   0  0  0  0  0  0  0  0  0  0  0  0
   -1.9676   -8.5190   32.1103 C   0  0  0  0  0  0  0  0  0  0  0  0
   -1.1021   -7.8729   31.2318 C   0  0  0  0  0  0  0  0  0  0  0  0
   -0.5707   -6.6037   31.2343 N   0  0  0  0  0  0  0  0  0  0  0  0
   -0.1922   -6.2737   29.9574 C   0  0  0  0  0  0  0  0  0  0  0  0
   -0.3138   -7.4106   29.1875 C   0  0  0  0  0  0  0  0  0  0  0  0
   -0.6768   -8.4909   30.0580 C   0  0  0  0  0  0  0  0  0  0  0  0
   -0.9413   -9.9276   29.8720 C   0  0  0  0  0  0  0  0  0  0  0  0
   -2.0950  -14.9331   29.6783 H   0  0  0  0  0  0  0  0  0  0  0  0
   -3.6612  -16.7806   29.9131 H   0  0  0  0  0  0  0  0  0  0  0  0
   -5.2127  -16.3314   29.5767 H   0  0  0  0  0  0  0  0  0  0  0  0
   -3.7700  -18.4388   27.7134 H   0  0  0  0  0  0  0  0  0  0  0  0
   -5.6812  -18.0216   28.5512 H   0  0  0  0  0  0  0  0  0  0  0  0
   -4.9372  -22.1502   28.1600 H   0  0  0  0  0  0  0  0  0  0  0  0
   -5.0157  -24.5119   26.5559 H   0  0  0  0  0  0  0  0  0  0  0  0
   -6.8096  -26.1493   26.9932 H   0  0  0  0  0  0  0  0  0  0  0  0
   -8.9740  -25.3110   27.9240 H   0  0  0  0  0  0  0  0  0  0  0  0
   -9.3251  -22.9399   28.3115 H   0  0  0  0  0  0  0  0  0  0  0  0
   -1.5381  -12.8455   30.1239 H   0  0  0  0  0  0  0  0  0  0  0  0
   -3.4593   -9.9810   32.1594 H   0  0  0  0  0  0  0  0  0  0  0  0
   -2.3634   -8.0141   32.9829 H   0  0  0  0  0  0  0  0  0  0  0  0
   -0.5983   -5.9660   32.0191 H   0  0  0  0  0  0  0  0  0  0  0  0
    0.1368   -5.2722   29.7149 H   0  0  0  0  0  0  0  0  0  0  0  0
   -0.0718   -7.4870   28.1367 H   0  0  0  0  0  0  0  0  0  0  0  0
   -0.5270  -10.3013   28.9475 H   0  0  0  0  0  0  0  0  0  0  0  0
  1  2  2  0
  2  3  1  0
  3  4  1  0
  4  5  1  0
  5  6  1  0
  6  7  2  0
  7  8  1  0
  8  9  1  0
  9 10  2  0
 10 11  1  0
 11 12  2  0
 12 13  1  0
 13 14  2  0
  2 15  1  0
 15 16  1  0
 16 17  2  0
 17 18  1  0
 18 19  2  0
 19 20  1  0
 20 21  1  0
 21 22  2  0
 22 23  1  0
 23 24  2  0
 14  6  1  0
 24 16  1  0
 13  8  1  0
 23 19  1  0
  3 25  1  0
  4 26  1  0
  4 27  1  0
  5 28  1  0
  5 29  1  0
  7 30  1  0
  9 31  1  0
 10 32  1  0
 11 33  1  0
 12 34  1  0
 15 35  1  0
 17 36  1  0
 18 37  1  0
 20 38  1  0
 21 39  1  0
 22 40  1  0
 24 41  1  0
M  END
>  <Energy>  (737) 
846.45335681008055

>  <compound_id>  (737) 
5697

>  <target_id>  (737) 
1

>  <reference_id>  (737) 
45

>  <inspiration_ids>  (737) 
[45, 40]

>  <energy_score>  (737) 
817.530116259307

>  <distance_score>  (737) 
4.599579094996378

>  <path>  (737) 
/opt/xchem-fragalysis-2/maxwin/BulkDock/SCRATCH/511018/C5697-P45/C5697-P45.minimised.mol

>  <scratch_subdir>  (737) 
/opt/xchem-fragalysis-2/maxwin/BulkDock/SCRATCH/511018/C5697-P45

>  <fragmenstein_runtime>  (737) 
19.33506155014038

>  <fragmenstein_outcome>  (737) 
too moved

>  <fragmenstein_mode>  (737) 
expansion

>  <fragmenstein_error>  (737) 


$$$$
C5697-P40
     RDKit          3D

 41 44  0  0  0  0  0  0  0  0999 V2000
   -2.9502  -12.2788   27.4527 O   0  0  0  0  0  0  0  0  0  0  0  0
   -3.5331  -11.9497   28.4673 C   0  0  0  0  0  0  0  0  0  0  0  0
   -5.2906  -12.3797   29.0897 N   0  0  0  0  0  0  0  0  0  0  0  0
   -6.7215  -13.6898   28.3807 C   0  0  0  0  0  0  0  0  0  0  0  0
   -6.1964  -15.6089   28.9219 C   0  0  0  0  0  0  0  0  0  0  0  0
   -6.3310  -17.6044   28.5494 C   0  0  0  0  0  0  0  0  0  0  0  0
   -5.1488  -18.3567   27.7162 C   0  0  0  0  0  0  0  0  0  0  0  0
   -5.5672  -19.5786   26.3308 N   0  0  0  0  0  0  0  0  0  0  0  0
   -4.9579  -20.8901   25.9157 C   0  0  0  0  0  0  0  0  0  0  0  0
   -5.3683  -21.9909   26.7696 C   0  0  0  0  0  0  0  0  0  0  0  0
   -6.5949  -22.1150   27.5511 C   0  0  0  0  0  0  0  0  0  0  0  0
   -7.4057  -21.1077   27.4320 C   0  0  0  0  0  0  0  0  0  0  0  0
   -6.6951  -19.7438   26.8808 C   0  0  0  0  0  0  0  0  0  0  0  0
   -6.0212  -18.5629   27.4531 N   0  0  0  0  0  0  0  0  0  0  0  0
   -2.9819  -11.1604   29.7347 N   0  0  0  0  0  0  0  0  0  0  0  0
   -1.3862  -10.3864   30.0686 C   0  0  0  0  0  0  0  0  0  0  0  0
   -1.4341   -9.5351   31.3317 C   0  0  0  0  0  0  0  0  0  0  0  0
   -0.9155   -8.2428   31.6215 C   0  0  0  0  0  0  0  0  0  0  0  0
   -0.2358   -7.6478   30.5971 C   0  0  0  0  0  0  0  0  0  0  0  0
    0.2899   -6.3802   30.5160 N   0  0  0  0  0  0  0  0  0  0  0  0
    1.0293   -6.2752   29.3785 C   0  0  0  0  0  0  0  0  0  0  0  0
    0.9247   -7.4836   28.7291 C   0  0  0  0  0  0  0  0  0  0  0  0
    0.0345   -8.3484   29.4284 C   0  0  0  0  0  0  0  0  0  0  0  0
   -0.5569   -9.6754   29.2350 C   0  0  0  0  0  0  0  0  0  0  0  0
   -5.5051  -11.9099   29.8479 H   0  0  0  0  0  0  0  0  0  0  0  0
   -7.6356  -13.7993   28.9221 H   0  0  0  0  0  0  0  0  0  0  0  0
   -6.8884  -13.4907   27.3001 H   0  0  0  0  0  0  0  0  0  0  0  0
   -7.2156  -15.8349   28.4394 H   0  0  0  0  0  0  0  0  0  0  0  0
   -5.8663  -15.5966   29.9766 H   0  0  0  0  0  0  0  0  0  0  0  0
   -4.0208  -18.1172   27.8114 H   0  0  0  0  0  0  0  0  0  0  0  0
   -4.4277  -20.8184   24.9757 H   0  0  0  0  0  0  0  0  0  0  0  0
   -4.6532  -22.7146   27.0919 H   0  0  0  0  0  0  0  0  0  0  0  0
   -7.0376  -22.8834   28.1414 H   0  0  0  0  0  0  0  0  0  0  0  0
   -8.4025  -21.0598   27.6708 H   0  0  0  0  0  0  0  0  0  0  0  0
   -3.7175  -11.0314   30.3823 H   0  0  0  0  0  0  0  0  0  0  0  0
   -2.1698   -9.7016   32.1052 H   0  0  0  0  0  0  0  0  0  0  0  0
   -1.1399   -7.7441   32.5589 H   0  0  0  0  0  0  0  0  0  0  0  0
    0.2110   -5.6706   31.2343 H   0  0  0  0  0  0  0  0  0  0  0  0
    1.5964   -5.3800   29.1544 H   0  0  0  0  0  0  0  0  0  0  0  0
    1.5146   -7.7112   27.8620 H   0  0  0  0  0  0  0  0  0  0  0  0
   -0.5585  -10.1691   28.3163 H   0  0  0  0  0  0  0  0  0  0  0  0
  1  2  2  0
  2  3  1  0
  3  4  1  0
  4  5  1  0
  5  6  1  0
  6  7  2  0
  7  8  1  0
  8  9  1  0
  9 10  2  0
 10 11  1  0
 11 12  2  0
 12 13  1  0
 13 14  2  0
  2 15  1  0
 15 16  1  0
 16 17  2  0
 17 18  1  0
 18 19  2  0
 19 20  1  0
 20 21  1  0
 21 22  2  0
 22 23  1  0
 23 24  2  0
 14  6  1  0
 24 16  1  0
 13  8  1  0
 23 19  1  0
  3 25  1  0
  4 26  1  0
  4 27  1  0
  5 28  1  0
  5 29  1  0
  7 30  1  0
  9 31  1  0
 10 32  1  0
 11 33  1  0
 12 34  1  0
 15 35  1  0
 17 36  1  0
 18 37  1  0
 20 38  1  0
 21 39  1  0
 22 40  1  0
 24 41  1  0
M  END
>  <Energy>  (738) 
977.33267990194361

>  <compound_id>  (738) 
5697

>  <target_id>  (738) 
1

>  <reference_id>  (738) 
40

>  <inspiration_ids>  (738) 
[45, 40]

>  <energy_score>  (738) 
948.4094393511917

>  <distance_score>  (738) 
5.547132244490339

>  <path>  (738) 
/opt/xchem-fragalysis-2/maxwin/BulkDock/SCRATCH/511018/C5697-P40/C5697-P40.minimised.mol

>  <scratch_subdir>  (738) 
/opt/xchem-fragalysis-2/maxwin/BulkDock/SCRATCH/511018/C5697-P40

>  <fragmenstein_runtime>  (738) 
24.393030405044556

>  <fragmenstein_outcome>  (738) 
too moved

>  <fragmenstein_mode>  (738) 
expansion

>  <fragmenstein_error>  (738) 


$$$$
C5679-P45
     RDKit          3D

 44 47  0  0  0  0  0  0  0  0999 V2000
   -9.9309  -23.2468   28.2170 C   0  0  0  0  0  0  0  0  0  0  0  0
   -8.4409  -23.4224   27.8802 C   0  0  0  0  0  0  0  0  0  0  0  0
   -8.1297  -24.7232   27.6383 C   0  0  0  0  0  0  0  0  0  0  0  0
   -6.8513  -25.1524   27.1494 C   0  0  0  0  0  0  0  0  0  0  0  0
   -5.9263  -24.2169   26.9317 C   0  0  0  0  0  0  0  0  0  0  0  0
   -6.2323  -22.8641   27.1024 N   0  0  0  0  0  0  0  0  0  0  0  0
   -5.3563  -21.7828   27.2753 C   0  0  0  0  0  0  0  0  0  0  0  0
   -5.6888  -20.1680   27.0575 C   0  0  0  0  0  0  0  0  0  0  0  0
   -4.9466  -18.2881   27.7578 C   0  0  0  0  0  0  0  0  0  0  0  0
   -3.5647  -16.6983   28.4507 C   0  0  0  0  0  0  0  0  0  0  0  0
   -3.0112  -14.9647   29.3944 N   0  0  0  0  0  0  0  0  0  0  0  0
   -1.8697  -14.4783   29.7074 C   0  0  0  0  0  0  0  0  0  0  0  0
   -0.7860  -14.9289   29.6502 O   0  0  0  0  0  0  0  0  0  0  0  0
   -2.5120  -12.6814   30.1347 N   0  0  0  0  0  0  0  0  0  0  0  0
   -1.6051  -11.0775   30.4649 C   0  0  0  0  0  0  0  0  0  0  0  0
   -2.1294  -10.0308   31.4340 C   0  0  0  0  0  0  0  0  0  0  0  0
   -1.6902   -8.6761   31.8067 C   0  0  0  0  0  0  0  0  0  0  0  0
   -0.9078   -8.0376   30.8537 C   0  0  0  0  0  0  0  0  0  0  0  0
   -0.4772   -6.7385   30.7333 N   0  0  0  0  0  0  0  0  0  0  0  0
   -0.2421   -6.4642   29.4081 C   0  0  0  0  0  0  0  0  0  0  0  0
   -0.2847   -7.6619   28.7254 C   0  0  0  0  0  0  0  0  0  0  0  0
   -0.5610   -8.7100   29.6796 C   0  0  0  0  0  0  0  0  0  0  0  0
   -0.8096  -10.1774   29.5598 C   0  0  0  0  0  0  0  0  0  0  0  0
   -7.2443  -20.9817   27.5381 N   0  0  0  0  0  0  0  0  0  0  0  0
   -7.3987  -22.3665   27.5855 C   0  0  0  0  0  0  0  0  0  0  0  0
  -10.2481  -23.9290   29.0151 H   0  0  0  0  0  0  0  0  0  0  0  0
  -10.5554  -23.4943   27.3492 H   0  0  0  0  0  0  0  0  0  0  0  0
  -10.1765  -22.2252   28.5149 H   0  0  0  0  0  0  0  0  0  0  0  0
   -8.8718  -25.5087   27.7698 H   0  0  0  0  0  0  0  0  0  0  0  0
   -6.6481  -26.2084   27.0039 H   0  0  0  0  0  0  0  0  0  0  0  0
   -4.9260  -24.4997   26.6482 H   0  0  0  0  0  0  0  0  0  0  0  0
   -4.9372  -22.1689   28.1939 H   0  0  0  0  0  0  0  0  0  0  0  0
   -3.8872  -18.6159   27.7406 H   0  0  0  0  0  0  0  0  0  0  0  0
   -5.6525  -17.9847   28.6070 H   0  0  0  0  0  0  0  0  0  0  0  0
   -2.6817  -16.8964   27.8132 H   0  0  0  0  0  0  0  0  0  0  0  0
   -4.0006  -16.5876   29.4776 H   0  0  0  0  0  0  0  0  0  0  0  0
   -3.7307  -14.2917   29.6904 H   0  0  0  0  0  0  0  0  0  0  0  0
   -3.5148  -12.5887   30.0193 H   0  0  0  0  0  0  0  0  0  0  0  0
   -3.1050  -10.1803   31.8907 H   0  0  0  0  0  0  0  0  0  0  0  0
   -2.1598   -8.1385   32.6225 H   0  0  0  0  0  0  0  0  0  0  0  0
   -0.4834   -6.0552   31.4785 H   0  0  0  0  0  0  0  0  0  0  0  0
   -0.0217   -5.4570   29.0805 H   0  0  0  0  0  0  0  0  0  0  0  0
   -0.0871   -7.7890   27.6705 H   0  0  0  0  0  0  0  0  0  0  0  0
   -0.5416  -10.4468   28.5497 H   0  0  0  0  0  0  0  0  0  0  0  0
  1  2  1  0
  2  3  2  0
  3  4  1  0
  4  5  2  0
  5  6  1  0
  6  7  1  0
  7  8  2  0
  8  9  1  0
  9 10  1  0
 10 11  1  0
 11 12  1  0
 12 13  2  0
 12 14  1  0
 14 15  1  0
 15 16  2  0
 16 17  1  0
 17 18  2  0
 18 19  1  0
 19 20  1  0
 20 21  2  0
 21 22  1  0
 22 23  2  0
  8 24  1  0
 24 25  2  0
 25  2  1  0
 25  6  1  0
 23 15  1  0
 22 18  1  0
  1 26  1  0
  1 27  1  0
  1 28  1  0
  3 29  1  0
  4 30  1  0
  5 31  1  0
  7 32  1  0
  9 33  1  0
  9 34  1  0
 10 35  1  0
 10 36  1  0
 11 37  1  0
 14 38  1  0
 16 39  1  0
 17 40  1  0
 19 41  1  0
 20 42  1  0
 21 43  1  0
 23 44  1  0
M  END
>  <Energy>  (739) 
894.00263038809544

>  <compound_id>  (739) 
5679

>  <target_id>  (739) 
1

>  <reference_id>  (739) 
45

>  <inspiration_ids>  (739) 
[45, 40]

>  <energy_score>  (739) 
873.6998071382502

>  <distance_score>  (739) 
4.7586732498919995

>  <path>  (739) 
/opt/xchem-fragalysis-2/maxwin/BulkDock/SCRATCH/511018/C5679-P45/C5679-P45.minimised.mol

>  <scratch_subdir>  (739) 
/opt/xchem-fragalysis-2/maxwin/BulkDock/SCRATCH/511018/C5679-P45

>  <fragmenstein_runtime>  (739) 
22.935752391815186

>  <fragmenstein_outcome>  (739) 
too moved

>  <fragmenstein_mode>  (739) 
expansion

>  <fragmenstein_error>  (739) 


$$$$
C5679-P40
     RDKit          3D

 44 47  0  0  0  0  0  0  0  0999 V2000
   -6.1979  -24.8256   30.5876 C   0  0  0  0  0  0  0  0  0  0  0  0
   -5.5790  -23.7995   29.1138 C   0  0  0  0  0  0  0  0  0  0  0  0
   -4.6625  -24.6275   28.7108 C   0  0  0  0  0  0  0  0  0  0  0  0
   -4.0873  -24.8234   27.1931 C   0  0  0  0  0  0  0  0  0  0  0  0
   -4.0361  -23.5116   27.3573 C   0  0  0  0  0  0  0  0  0  0  0  0
   -5.0758  -22.3017   27.0376 N   0  0  0  0  0  0  0  0  0  0  0  0
   -5.0202  -20.9946   26.1368 C   0  0  0  0  0  0  0  0  0  0  0  0
   -5.8954  -19.8829   26.9538 C   0  0  0  0  0  0  0  0  0  0  0  0
   -5.2433  -18.1128   27.7719 C   0  0  0  0  0  0  0  0  0  0  0  0
   -4.4434  -16.6376   29.1234 C   0  0  0  0  0  0  0  0  0  0  0  0
   -3.4425  -15.0479   29.7459 N   0  0  0  0  0  0  0  0  0  0  0  0
   -2.3807  -13.9313   28.8681 C   0  0  0  0  0  0  0  0  0  0  0  0
   -2.0536  -14.1310   27.7470 O   0  0  0  0  0  0  0  0  0  0  0  0
   -2.1102  -12.3662   30.0318 N   0  0  0  0  0  0  0  0  0  0  0  0
   -1.2958  -10.7349   29.8192 C   0  0  0  0  0  0  0  0  0  0  0  0
   -1.3176   -9.8224   31.0772 C   0  0  0  0  0  0  0  0  0  0  0  0
   -0.9683   -8.4498   31.4060 C   0  0  0  0  0  0  0  0  0  0  0  0
   -0.3259   -7.7881   30.4177 C   0  0  0  0  0  0  0  0  0  0  0  0
    0.1605   -6.5083   30.3710 N   0  0  0  0  0  0  0  0  0  0  0  0
    0.9666   -6.3918   29.2817 C   0  0  0  0  0  0  0  0  0  0  0  0
    0.9011   -7.5974   28.6190 C   0  0  0  0  0  0  0  0  0  0  0  0
   -0.0166   -8.4804   29.2616 C   0  0  0  0  0  0  0  0  0  0  0  0
   -0.5754   -9.8636   29.0660 C   0  0  0  0  0  0  0  0  0  0  0  0
   -6.7787  -21.3339   27.6566 N   0  0  0  0  0  0  0  0  0  0  0  0
   -5.9694  -22.3228   28.1048 C   0  0  0  0  0  0  0  0  0  0  0  0
   -5.7954  -24.4448   31.5423 H   0  0  0  0  0  0  0  0  0  0  0  0
   -5.8827  -25.8778   30.4691 H   0  0  0  0  0  0  0  0  0  0  0  0
   -7.2699  -25.1272   30.6680 H   0  0  0  0  0  0  0  0  0  0  0  0
   -4.7714  -25.3923   29.3684 H   0  0  0  0  0  0  0  0  0  0  0  0
   -4.4407  -25.7665   26.8164 H   0  0  0  0  0  0  0  0  0  0  0  0
   -3.0193  -23.4946   27.7127 H   0  0  0  0  0  0  0  0  0  0  0  0
   -4.5883  -20.9045   25.1443 H   0  0  0  0  0  0  0  0  0  0  0  0
   -6.1245  -17.9686   28.4310 H   0  0  0  0  0  0  0  0  0  0  0  0
   -4.2027  -18.4826   27.8655 H   0  0  0  0  0  0  0  0  0  0  0  0
   -3.8517  -16.4575   28.2173 H   0  0  0  0  0  0  0  0  0  0  0  0
   -5.4015  -16.2231   29.4799 H   0  0  0  0  0  0  0  0  0  0  0  0
   -3.5225  -14.7443   30.6883 H   0  0  0  0  0  0  0  0  0  0  0  0
   -2.4082  -12.5256   30.9201 H   0  0  0  0  0  0  0  0  0  0  0  0
   -1.8038  -10.0568   31.9993 H   0  0  0  0  0  0  0  0  0  0  0  0
   -1.1902   -8.0259   32.3803 H   0  0  0  0  0  0  0  0  0  0  0  0
    0.0465   -5.8121   31.0976 H   0  0  0  0  0  0  0  0  0  0  0  0
    1.5457   -5.4948   29.0987 H   0  0  0  0  0  0  0  0  0  0  0  0
    1.5598   -7.8200   27.7991 H   0  0  0  0  0  0  0  0  0  0  0  0
   -0.5829  -10.3135   28.1381 H   0  0  0  0  0  0  0  0  0  0  0  0
  1  2  1  0
  2  3  2  0
  3  4  1  0
  4  5  2  0
  5  6  1  0
  6  7  1  0
  7  8  2  0
  8  9  1  0
  9 10  1  0
 10 11  1  0
 11 12  1  0
 12 13  2  0
 12 14  1  0
 14 15  1  0
 15 16  2  0
 16 17  1  0
 17 18  2  0
 18 19  1  0
 19 20  1  0
 20 21  2  0
 21 22  1  0
 22 23  2  0
  8 24  1  0
 24 25  2  0
 25  2  1  0
 25  6  1  0
 23 15  1  0
 22 18  1  0
  1 26  1  0
  1 27  1  0
  1 28  1  0
  3 29  1  0
  4 30  1  0
  5 31  1  0
  7 32  1  0
  9 33  1  0
  9 34  1  0
 10 35  1  0
 10 36  1  0
 11 37  1  0
 14 38  1  0
 16 39  1  0
 17 40  1  0
 19 41  1  0
 20 42  1  0
 21 43  1  0
 23 44  1  0
M  END
>  <Energy>  (740) 
1108.3024203288282

>  <compound_id>  (740) 
5679

>  <target_id>  (740) 
1

>  <reference_id>  (740) 
40

>  <inspiration_ids>  (740) 
[45, 40]

>  <energy_score>  (740) 
1087.9995970789944

>  <distance_score>  (740) 
4.874982092095946

>  <path>  (740) 
/opt/xchem-fragalysis-2/maxwin/BulkDock/SCRATCH/511018/C5679-P40/C5679-P40.minimised.mol

>  <scratch_subdir>  (740) 
/opt/xchem-fragalysis-2/maxwin/BulkDock/SCRATCH/511018/C5679-P40

>  <fragmenstein_runtime>  (740) 
22.162599802017212

>  <fragmenstein_outcome>  (740) 
too moved

>  <fragmenstein_mode>  (740) 
expansion

>  <fragmenstein_error>  (740) 


$$$$
C5700-P45
     RDKit          3D

 39 42  0  0  0  0  0  0  0  0999 V2000
   -9.0369  -25.4867   28.2310 C   0  0  0  0  0  0  0  0  0  0  0  0
   -8.1562  -24.3147   28.0538 C   0  0  0  0  0  0  0  0  0  0  0  0
   -8.4745  -22.9781   28.0699 C   0  0  0  0  0  0  0  0  0  0  0  0
   -7.3379  -22.2472   27.6860 N   0  0  0  0  0  0  0  0  0  0  0  0
   -7.0048  -20.7599   27.4502 C   0  0  0  0  0  0  0  0  0  0  0  0
   -5.7083  -19.5909   27.0947 C   0  0  0  0  0  0  0  0  0  0  0  0
   -6.2226  -17.8868   28.1193 N   0  0  0  0  0  0  0  0  0  0  0  0
   -5.2052  -16.6235   29.2350 C   0  0  0  0  0  0  0  0  0  0  0  0
   -3.9874  -16.5643   29.4821 O   0  0  0  0  0  0  0  0  0  0  0  0
   -5.9636  -15.2981   29.9055 C   0  0  0  0  0  0  0  0  0  0  0  0
   -6.5448  -13.5852   29.7548 C   0  0  0  0  0  0  0  0  0  0  0  0
   -6.9286  -12.8262   30.8650 C   0  0  0  0  0  0  0  0  0  0  0  0
   -7.3027  -11.4607   30.8279 C   0  0  0  0  0  0  0  0  0  0  0  0
   -7.4641  -10.8767   29.5780 C   0  0  0  0  0  0  0  0  0  0  0  0
   -7.6990   -9.5727   29.2033 N   0  0  0  0  0  0  0  0  0  0  0  0
   -7.8516   -9.4938   27.8420 C   0  0  0  0  0  0  0  0  0  0  0  0
   -7.6959  -10.7656   27.3321 C   0  0  0  0  0  0  0  0  0  0  0  0
   -7.4016  -11.6404   28.4195 C   0  0  0  0  0  0  0  0  0  0  0  0
   -7.0483  -13.0134   28.5339 C   0  0  0  0  0  0  0  0  0  0  0  0
   -5.1978  -21.3327   26.8421 C   0  0  0  0  0  0  0  0  0  0  0  0
   -5.2586  -22.6307   27.3738 C   0  0  0  0  0  0  0  0  0  0  0  0
   -6.4248  -23.1965   27.7287 C   0  0  0  0  0  0  0  0  0  0  0  0
   -6.8232  -24.4302   27.8813 N   0  0  0  0  0  0  0  0  0  0  0  0
   -9.3249  -25.5929   29.2811 H   0  0  0  0  0  0  0  0  0  0  0  0
   -9.9476  -25.3773   27.6338 H   0  0  0  0  0  0  0  0  0  0  0  0
   -8.5356  -26.4058   27.9123 H   0  0  0  0  0  0  0  0  0  0  0  0
   -9.4352  -22.5115   28.2589 H   0  0  0  0  0  0  0  0  0  0  0  0
   -7.8501  -20.3884   27.9597 H   0  0  0  0  0  0  0  0  0  0  0  0
   -7.2292  -17.7168   28.1866 H   0  0  0  0  0  0  0  0  0  0  0  0
   -5.9181  -15.5120   30.9549 H   0  0  0  0  0  0  0  0  0  0  0  0
   -6.4013  -15.4020   28.9223 H   0  0  0  0  0  0  0  0  0  0  0  0
   -7.0728  -13.3033   31.8184 H   0  0  0  0  0  0  0  0  0  0  0  0
   -7.4871  -10.9109   31.7442 H   0  0  0  0  0  0  0  0  0  0  0  0
   -7.7186   -8.7911   29.8424 H   0  0  0  0  0  0  0  0  0  0  0  0
   -8.0407   -8.5463   27.3592 H   0  0  0  0  0  0  0  0  0  0  0  0
   -7.7273  -11.0334   26.2855 H   0  0  0  0  0  0  0  0  0  0  0  0
   -7.0631  -13.5758   27.6096 H   0  0  0  0  0  0  0  0  0  0  0  0
   -4.6707  -21.1011   25.8961 H   0  0  0  0  0  0  0  0  0  0  0  0
   -4.6378  -23.4924   27.1859 H   0  0  0  0  0  0  0  0  0  0  0  0
  1  2  1  0
  2  3  2  0
  3  4  1  0
  4  5  1  0
  5  6  2  0
  6  7  1  0
  7  8  1  0
  8  9  2  0
  8 10  1  0
 10 11  1  0
 11 12  2  0
 12 13  1  0
 13 14  2  0
 14 15  1  0
 15 16  1  0
 16 17  2  0
 17 18  1  0
 18 19  2  0
  6 20  1  0
 20 21  2  0
 21 22  1  0
 22 23  2  0
 23  2  1  0
 22  4  1  0
 19 11  1  0
 18 14  1  0
  1 24  1  0
  1 25  1  0
  1 26  1  0
  3 27  1  0
  5 28  1  0
  7 29  1  0
 10 30  1  0
 10 31  1  0
 12 32  1  0
 13 33  1  0
 15 34  1  0
 16 35  1  0
 17 36  1  0
 19 37  1  0
 20 38  1  0
 21 39  1  0
M  END
>  <Energy>  (741) 
762.63462160768108

>  <compound_id>  (741) 
5700

>  <target_id>  (741) 
1

>  <reference_id>  (741) 
45

>  <inspiration_ids>  (741) 
[45, 40]

>  <energy_score>  (741) 
681.510242535767

>  <distance_score>  (741) 
8.693274159194237

>  <path>  (741) 
/opt/xchem-fragalysis-2/maxwin/BulkDock/SCRATCH/511018/C5700-P45/C5700-P45.minimised.mol

>  <scratch_subdir>  (741) 
/opt/xchem-fragalysis-2/maxwin/BulkDock/SCRATCH/511018/C5700-P45

>  <fragmenstein_runtime>  (741) 
15.422522068023682

>  <fragmenstein_outcome>  (741) 
too moved

>  <fragmenstein_mode>  (741) 
expansion

>  <fragmenstein_error>  (741) 


$$$$
C5700-P40
     RDKit          3D

 39 42  0  0  0  0  0  0  0  0999 V2000
    4.4114  -20.7671   28.8003 C   0  0  0  0  0  0  0  0  0  0  0  0
    4.2203  -19.4003   29.3297 C   0  0  0  0  0  0  0  0  0  0  0  0
    4.5531  -18.1875   28.7586 C   0  0  0  0  0  0  0  0  0  0  0  0
    4.1022  -17.2159   29.6272 N   0  0  0  0  0  0  0  0  0  0  0  0
    4.0215  -15.8138   29.4525 C   0  0  0  0  0  0  0  0  0  0  0  0
    3.3618  -15.0564   30.3612 C   0  0  0  0  0  0  0  0  0  0  0  0
    2.7971  -13.8254   30.0327 N   0  0  0  0  0  0  0  0  0  0  0  0
    1.7350  -13.0697   30.6666 C   0  0  0  0  0  0  0  0  0  0  0  0
    1.1369  -13.2749   31.6764 O   0  0  0  0  0  0  0  0  0  0  0  0
    1.1256  -11.7392   29.8094 C   0  0  0  0  0  0  0  0  0  0  0  0
   -0.1109  -10.1297   29.6315 C   0  0  0  0  0  0  0  0  0  0  0  0
    0.3438   -8.8977   29.0028 C   0  0  0  0  0  0  0  0  0  0  0  0
    0.5971   -7.5842   29.5107 C   0  0  0  0  0  0  0  0  0  0  0  0
   -0.0843   -7.3072   30.6682 C   0  0  0  0  0  0  0  0  0  0  0  0
   -0.1707   -6.1448   31.3918 N   0  0  0  0  0  0  0  0  0  0  0  0
   -0.8703   -6.3842   32.5378 C   0  0  0  0  0  0  0  0  0  0  0  0
   -1.2916   -7.6956   32.5105 C   0  0  0  0  0  0  0  0  0  0  0  0
   -0.8329   -8.2869   31.3075 C   0  0  0  0  0  0  0  0  0  0  0  0
   -0.8645   -9.6418   30.7694 C   0  0  0  0  0  0  0  0  0  0  0  0
    2.8355  -15.7806   31.5405 C   0  0  0  0  0  0  0  0  0  0  0  0
    2.9232  -17.1169   31.7039 C   0  0  0  0  0  0  0  0  0  0  0  0
    3.5518  -17.9024   30.7070 C   0  0  0  0  0  0  0  0  0  0  0  0
    3.6361  -19.2064   30.5566 N   0  0  0  0  0  0  0  0  0  0  0  0
    3.4504  -21.2878   28.7398 H   0  0  0  0  0  0  0  0  0  0  0  0
    5.0743  -21.3394   29.4562 H   0  0  0  0  0  0  0  0  0  0  0  0
    4.8524  -20.7479   27.7989 H   0  0  0  0  0  0  0  0  0  0  0  0
    5.0082  -17.9341   27.8127 H   0  0  0  0  0  0  0  0  0  0  0  0
    4.3536  -15.4405   28.4925 H   0  0  0  0  0  0  0  0  0  0  0  0
    3.1300  -13.3131   29.2231 H   0  0  0  0  0  0  0  0  0  0  0  0
    0.3298  -11.9043   30.5136 H   0  0  0  0  0  0  0  0  0  0  0  0
    2.1374  -11.3007   29.9111 H   0  0  0  0  0  0  0  0  0  0  0  0
   -0.4977   -8.5477   28.3678 H   0  0  0  0  0  0  0  0  0  0  0  0
    1.0583   -6.8083   28.9090 H   0  0  0  0  0  0  0  0  0  0  0  0
    0.2741   -5.2675   31.1540 H   0  0  0  0  0  0  0  0  0  0  0  0
   -1.0079   -5.6115   33.2849 H   0  0  0  0  0  0  0  0  0  0  0  0
   -1.8478   -8.1871   33.2980 H   0  0  0  0  0  0  0  0  0  0  0  0
   -1.1785  -10.3265   31.5110 H   0  0  0  0  0  0  0  0  0  0  0  0
    2.3601  -15.2029   32.3251 H   0  0  0  0  0  0  0  0  0  0  0  0
    2.5185  -17.6134   32.5779 H   0  0  0  0  0  0  0  0  0  0  0  0
  1  2  1  0
  2  3  2  0
  3  4  1  0
  4  5  1  0
  5  6  2  0
  6  7  1  0
  7  8  1  0
  8  9  2  0
  8 10  1  0
 10 11  1  0
 11 12  2  0
 12 13  1  0
 13 14  2  0
 14 15  1  0
 15 16  1  0
 16 17  2  0
 17 18  1  0
 18 19  2  0
  6 20  1  0
 20 21  2  0
 21 22  1  0
 22 23  2  0
 23  2  1  0
 22  4  1  0
 19 11  1  0
 18 14  1  0
  1 24  1  0
  1 25  1  0
  1 26  1  0
  3 27  1  0
  5 28  1  0
  7 29  1  0
 10 30  1  0
 10 31  1  0
 12 32  1  0
 13 33  1  0
 15 34  1  0
 16 35  1  0
 17 36  1  0
 19 37  1  0
 20 38  1  0
 21 39  1  0
M  END
>  <Energy>  (742) 
283.35231095665404

>  <compound_id>  (742) 
5700

>  <target_id>  (742) 
1

>  <reference_id>  (742) 
40

>  <inspiration_ids>  (742) 
[45, 40]

>  <energy_score>  (742) 
202.22793188476373

>  <distance_score>  (742) 
10.775497221953165

>  <path>  (742) 
/opt/xchem-fragalysis-2/maxwin/BulkDock/SCRATCH/511018/C5700-P40/C5700-P40.minimised.mol

>  <scratch_subdir>  (742) 
/opt/xchem-fragalysis-2/maxwin/BulkDock/SCRATCH/511018/C5700-P40

>  <fragmenstein_runtime>  (742) 
30.37544012069702

>  <fragmenstein_outcome>  (742) 
too moved

>  <fragmenstein_mode>  (742) 
expansion

>  <fragmenstein_error>  (742) 


$$$$
C5703-P44
     RDKit          3D

 53 53  0  0  0  0  0  0  0  0999 V2000
   14.8055   -1.5702   21.0515 C   0  0  0  0  0  0  0  0  0  0  0  0
   14.2216   -1.8949   22.4221 C   0  0  0  0  0  0  0  0  0  0  0  0
   13.3067   -3.1488   22.5547 C   0  0  0  0  0  0  0  0  0  0  0  0
   13.9443   -4.3978   21.9055 C   0  0  0  0  0  0  0  0  0  0  0  0
   13.5556   -4.6041   20.4390 C   0  0  0  0  0  0  0  0  0  0  0  0
   12.9594   -3.3422   24.0905 C   0  0  0  0  0  0  0  0  0  0  0  0
   13.5626   -4.1617   24.7245 O   0  0  0  0  0  0  0  0  0  0  0  0
   11.9688   -2.3664   24.5060 N   0  0  0  0  0  0  0  0  0  0  0  0
   11.4704   -2.0126   25.8325 C   0  0  0  0  0  0  0  0  0  0  0  0
   10.1571   -2.6278   26.2874 C   0  0  0  0  0  0  0  0  0  0  0  0
    9.6917   -1.9866   27.6521 C   0  0  0  0  0  0  0  0  0  0  0  0
    9.2047   -0.5100   27.7405 N   0  0  0  0  0  0  0  0  0  0  0  0
    7.9674   -0.3491   27.0173 C   0  0  0  0  0  0  0  0  0  0  0  0
    7.7676   -0.0493   25.8707 O   0  0  0  0  0  0  0  0  0  0  0  0
    6.7372   -0.5088   27.9895 C   0  0  0  0  0  0  0  0  0  0  0  0
    6.4846    0.9107   28.5525 C   0  0  0  0  0  0  0  0  0  0  0  0
    5.4488   -1.0228   27.3131 C   0  0  0  0  0  0  0  0  0  0  0  0
    3.9694   -1.0171   28.3716 S   0  0  0  0  0  0  0  0  0  0  0  0
    3.1738   -2.5479   27.9715 C   0  0  0  0  0  0  0  0  0  0  0  0
    3.0791    0.0434   27.9391 O   0  0  0  0  0  0  0  0  0  0  0  0
    4.3511   -1.1276   29.7670 O   0  0  0  0  0  0  0  0  0  0  0  0
   10.6340   -0.2438   27.3247 C   0  0  0  0  0  0  0  0  0  0  0  0
   11.1910   -0.5305   25.9252 C   0  0  0  0  0  0  0  0  0  0  0  0
   15.3807   -0.6398   21.1083 H   0  0  0  0  0  0  0  0  0  0  0  0
   15.4915   -2.3521   20.7134 H   0  0  0  0  0  0  0  0  0  0  0  0
   14.0355   -1.4311   20.2978 H   0  0  0  0  0  0  0  0  0  0  0  0
   13.6872   -1.0086   22.7813 H   0  0  0  0  0  0  0  0  0  0  0  0
   15.0641   -2.0150   23.1172 H   0  0  0  0  0  0  0  0  0  0  0  0
   12.3607   -3.0049   22.0343 H   0  0  0  0  0  0  0  0  0  0  0  0
   13.6367   -5.2995   22.4492 H   0  0  0  0  0  0  0  0  0  0  0  0
   15.0364   -4.3522   21.9929 H   0  0  0  0  0  0  0  0  0  0  0  0
   12.5199   -4.9436   20.3752 H   0  0  0  0  0  0  0  0  0  0  0  0
   13.6675   -3.7021   19.8361 H   0  0  0  0  0  0  0  0  0  0  0  0
   14.1817   -5.3859   19.9971 H   0  0  0  0  0  0  0  0  0  0  0  0
   11.7285   -1.7737   23.7072 H   0  0  0  0  0  0  0  0  0  0  0  0
   12.2582   -2.2958   26.5418 H   0  0  0  0  0  0  0  0  0  0  0  0
    9.3810   -2.4499   25.5470 H   0  0  0  0  0  0  0  0  0  0  0  0
   10.2644   -3.7119   26.4036 H   0  0  0  0  0  0  0  0  0  0  0  0
   10.3907   -2.2183   28.4731 H   0  0  0  0  0  0  0  0  0  0  0  0
    8.7943   -2.5626   27.9253 H   0  0  0  0  0  0  0  0  0  0  0  0
    7.0130   -1.1763   28.8137 H   0  0  0  0  0  0  0  0  0  0  0  0
    7.4169    1.3555   28.9189 H   0  0  0  0  0  0  0  0  0  0  0  0
    6.0911    1.5765   27.7760 H   0  0  0  0  0  0  0  0  0  0  0  0
    5.7856    0.9097   29.3917 H   0  0  0  0  0  0  0  0  0  0  0  0
    5.1979   -0.4473   26.4154 H   0  0  0  0  0  0  0  0  0  0  0  0
    5.6123   -2.0598   27.0001 H   0  0  0  0  0  0  0  0  0  0  0  0
    2.1708   -2.5443   28.4024 H   0  0  0  0  0  0  0  0  0  0  0  0
    3.1257   -2.6457   26.8906 H   0  0  0  0  0  0  0  0  0  0  0  0
    3.7600   -3.3677   28.3917 H   0  0  0  0  0  0  0  0  0  0  0  0
   10.6340    0.8575   27.3609 H   0  0  0  0  0  0  0  0  0  0  0  0
   11.3493   -0.4880   28.1289 H   0  0  0  0  0  0  0  0  0  0  0  0
   10.4872   -0.1942   25.1553 H   0  0  0  0  0  0  0  0  0  0  0  0
   12.1201    0.0324   25.7729 H   0  0  0  0  0  0  0  0  0  0  0  0
  1  2  1  0
  2  3  1  0
  3  4  1  0
  4  5  1  0
  3  6  1  0
  6  7  2  0
  6  8  1  0
  8  9  1  0
  9 10  1  0
 10 11  1  0
 11 12  1  0
 12 13  1  0
 13 14  2  0
 13 15  1  0
 15 16  1  0
 15 17  1  0
 17 18  1  0
 18 19  1  0
 18 20  2  0
 18 21  2  0
 12 22  1  0
 22 23  1  0
 23  9  1  0
  1 24  1  0
  1 25  1  0
  1 26  1  0
  2 27  1  0
  2 28  1  0
  3 29  1  0
  4 30  1  0
  4 31  1  0
  5 32  1  0
  5 33  1  0
  5 34  1  0
  8 35  1  0
  9 36  1  0
 10 37  1  0
 10 38  1  0
 11 39  1  0
 11 40  1  0
 15 41  1  0
 16 42  1  0
 16 43  1  0
 16 44  1  0
 17 45  1  0
 17 46  1  0
 19 47  1  0
 19 48  1  0
 19 49  1  0
 22 50  1  0
 22 51  1  0
 23 52  1  0
 23 53  1  0
M  END
>  <Energy>  (743) 
50.882006265209029

>  <compound_id>  (743) 
5703

>  <target_id>  (743) 
1

>  <reference_id>  (743) 
44

>  <inspiration_ids>  (743) 
[44, 27]

>  <energy_score>  (743) 
34.13493311001659

>  <distance_score>  (743) 
7.834509165314426

>  <path>  (743) 
/opt/xchem-fragalysis-2/maxwin/BulkDock/SCRATCH/511018/C5703-P44/C5703-P44.minimised.mol

>  <scratch_subdir>  (743) 
/opt/xchem-fragalysis-2/maxwin/BulkDock/SCRATCH/511018/C5703-P44

>  <fragmenstein_runtime>  (743) 
16.144831657409668

>  <fragmenstein_outcome>  (743) 
too moved

>  <fragmenstein_mode>  (743) 
expansion

>  <fragmenstein_error>  (743) 


$$$$
C5703-P27
     RDKit          3D

 53 53  0  0  0  0  0  0  0  0999 V2000
   10.6724    1.8789   16.0525 C   0  0  0  0  0  0  0  0  0  0  0  0
    9.2454    2.2156   16.4813 C   0  0  0  0  0  0  0  0  0  0  0  0
    8.9451    3.7285   16.6308 C   0  0  0  0  0  0  0  0  0  0  0  0
    9.1514    4.4130   15.2715 C   0  0  0  0  0  0  0  0  0  0  0  0
    9.2252    5.9163   15.4116 C   0  0  0  0  0  0  0  0  0  0  0  0
    7.4686    3.9439   17.1394 C   0  0  0  0  0  0  0  0  0  0  0  0
    6.5855    3.5027   16.4599 O   0  0  0  0  0  0  0  0  0  0  0  0
    7.4251    4.6275   18.4106 N   0  0  0  0  0  0  0  0  0  0  0  0
    6.2905    5.0815   19.2190 C   0  0  0  0  0  0  0  0  0  0  0  0
    5.1586    4.0923   19.5358 C   0  0  0  0  0  0  0  0  0  0  0  0
    4.8142    4.0159   21.0826 C   0  0  0  0  0  0  0  0  0  0  0  0
    4.4781    5.1321   22.1349 N   0  0  0  0  0  0  0  0  0  0  0  0
    3.0499    5.1172   22.4449 C   0  0  0  0  0  0  0  0  0  0  0  0
    2.1338    5.7158   21.9389 O   0  0  0  0  0  0  0  0  0  0  0  0
    2.7264    4.2417   23.7196 C   0  0  0  0  0  0  0  0  0  0  0  0
    3.5617    4.7638   24.8955 C   0  0  0  0  0  0  0  0  0  0  0  0
    1.2209    4.2909   24.1055 C   0  0  0  0  0  0  0  0  0  0  0  0
    0.6949    3.2218   25.4726 S   0  0  0  0  0  0  0  0  0  0  0  0
    0.3518    4.3247   26.8170 C   0  0  0  0  0  0  0  0  0  0  0  0
   -0.5720    2.6131   25.0986 O   0  0  0  0  0  0  0  0  0  0  0  0
    1.7955    2.3802   25.8969 O   0  0  0  0  0  0  0  0  0  0  0  0
    5.2560    5.9738   21.1767 C   0  0  0  0  0  0  0  0  0  0  0  0
    6.6497    5.6614   20.5714 C   0  0  0  0  0  0  0  0  0  0  0  0
   11.4076    2.3679   16.6980 H   0  0  0  0  0  0  0  0  0  0  0  0
   10.8303    0.7965   16.0987 H   0  0  0  0  0  0  0  0  0  0  0  0
   10.8680    2.1708   15.0174 H   0  0  0  0  0  0  0  0  0  0  0  0
    9.0162    1.7086   17.4160 H   0  0  0  0  0  0  0  0  0  0  0  0
    8.5568    1.7674   15.7647 H   0  0  0  0  0  0  0  0  0  0  0  0
    9.6541    4.1589   17.3422 H   0  0  0  0  0  0  0  0  0  0  0  0
    8.3390    4.1650   14.5820 H   0  0  0  0  0  0  0  0  0  0  0  0
   10.0830    4.0970   14.7955 H   0  0  0  0  0  0  0  0  0  0  0  0
    8.2966    6.3275   15.8199 H   0  0  0  0  0  0  0  0  0  0  0  0
   10.0493    6.2133   16.0684 H   0  0  0  0  0  0  0  0  0  0  0  0
    9.3921    6.3804   14.4341 H   0  0  0  0  0  0  0  0  0  0  0  0
    8.3636    4.9349   18.6537 H   0  0  0  0  0  0  0  0  0  0  0  0
    5.8532    5.8767   18.5989 H   0  0  0  0  0  0  0  0  0  0  0  0
    5.4163    3.0864   19.2039 H   0  0  0  0  0  0  0  0  0  0  0  0
    4.2521    4.3853   18.9911 H   0  0  0  0  0  0  0  0  0  0  0  0
    3.9752    3.3070   21.1465 H   0  0  0  0  0  0  0  0  0  0  0  0
    5.6525    3.4730   21.5459 H   0  0  0  0  0  0  0  0  0  0  0  0
    2.9578    3.2068   23.4741 H   0  0  0  0  0  0  0  0  0  0  0  0
    3.4335    4.1755   25.8054 H   0  0  0  0  0  0  0  0  0  0  0  0
    3.2984    5.8025   25.1265 H   0  0  0  0  0  0  0  0  0  0  0  0
    4.6322    4.7496   24.6664 H   0  0  0  0  0  0  0  0  0  0  0  0
    0.9072    5.3110   24.3529 H   0  0  0  0  0  0  0  0  0  0  0  0
    0.6192    3.9785   23.2433 H   0  0  0  0  0  0  0  0  0  0  0  0
    1.2638    4.8659   27.0738 H   0  0  0  0  0  0  0  0  0  0  0  0
   -0.4350    5.0174   26.5127 H   0  0  0  0  0  0  0  0  0  0  0  0
    0.0162    3.7314   27.6703 H   0  0  0  0  0  0  0  0  0  0  0  0
    4.5511    6.3953   20.4385 H   0  0  0  0  0  0  0  0  0  0  0  0
    5.4473    6.8528   21.8126 H   0  0  0  0  0  0  0  0  0  0  0  0
    7.2222    6.5858   20.4312 H   0  0  0  0  0  0  0  0  0  0  0  0
    7.2499    4.9930   21.1979 H   0  0  0  0  0  0  0  0  0  0  0  0
  1  2  1  0
  2  3  1  0
  3  4  1  0
  4  5  1  0
  3  6  1  0
  6  7  2  0
  6  8  1  0
  8  9  1  0
  9 10  1  0
 10 11  1  0
 11 12  1  0
 12 13  1  0
 13 14  2  0
 13 15  1  0
 15 16  1  0
 15 17  1  0
 17 18  1  0
 18 19  1  0
 18 20  2  0
 18 21  2  0
 12 22  1  0
 22 23  1  0
 23  9  1  0
  1 24  1  0
  1 25  1  0
  1 26  1  0
  2 27  1  0
  2 28  1  0
  3 29  1  0
  4 30  1  0
  4 31  1  0
  5 32  1  0
  5 33  1  0
  5 34  1  0
  8 35  1  0
  9 36  1  0
 10 37  1  0
 10 38  1  0
 11 39  1  0
 11 40  1  0
 15 41  1  0
 16 42  1  0
 16 43  1  0
 16 44  1  0
 17 45  1  0
 17 46  1  0
 19 47  1  0
 19 48  1  0
 19 49  1  0
 22 50  1  0
 22 51  1  0
 23 52  1  0
 23 53  1  0
M  END
>  <Energy>  (744) 
70.54876763504592

>  <compound_id>  (744) 
5703

>  <target_id>  (744) 
1

>  <reference_id>  (744) 
27

>  <inspiration_ids>  (744) 
[44, 27]

>  <energy_score>  (744) 
53.80169447985497

>  <distance_score>  (744) 
9.522971453161242

>  <path>  (744) 
/opt/xchem-fragalysis-2/maxwin/BulkDock/SCRATCH/511018/C5703-P27/C5703-P27.minimised.mol

>  <scratch_subdir>  (744) 
/opt/xchem-fragalysis-2/maxwin/BulkDock/SCRATCH/511018/C5703-P27

>  <fragmenstein_runtime>  (744) 
19.316765308380127

>  <fragmenstein_outcome>  (744) 
too moved

>  <fragmenstein_mode>  (744) 
expansion

>  <fragmenstein_error>  (744) 


$$$$
C5706-P44
     RDKit          3D

 54 54  0  0  0  0  0  0  0  0999 V2000
   15.6305   -1.4436   15.2907 C   0  0  0  0  0  0  0  0  0  0  0  0
   15.0535   -2.6877   15.9581 C   0  0  0  0  0  0  0  0  0  0  0  0
   13.7143   -2.4027   16.6456 C   0  0  0  0  0  0  0  0  0  0  0  0
   12.5955   -1.9433   15.6769 C   0  0  0  0  0  0  0  0  0  0  0  0
   12.3547   -2.8421   14.4711 C   0  0  0  0  0  0  0  0  0  0  0  0
   13.2332   -3.5551   17.5626 C   0  0  0  0  0  0  0  0  0  0  0  0
   12.2139   -4.1180   17.2935 O   0  0  0  0  0  0  0  0  0  0  0  0
   14.1266   -3.7117   18.6822 N   0  0  0  0  0  0  0  0  0  0  0  0
   14.0202   -4.5343   19.8822 C   0  0  0  0  0  0  0  0  0  0  0  0
   15.2621   -5.3530   20.1139 C   0  0  0  0  0  0  0  0  0  0  0  0
   15.3762   -5.2391   21.6058 C   0  0  0  0  0  0  0  0  0  0  0  0
   14.5966   -3.7647   21.9476 C   0  0  0  0  0  0  0  0  0  0  0  0
   12.8154   -3.8360   22.3344 N   0  0  0  0  0  0  0  0  0  0  0  0
   12.7055   -4.3306   23.6283 C   0  0  0  0  0  0  0  0  0  0  0  0
   12.5916   -5.5206   23.8974 O   0  0  0  0  0  0  0  0  0  0  0  0
   12.6360   -3.1760   24.7108 C   0  0  0  0  0  0  0  0  0  0  0  0
   11.1580   -3.0572   25.1847 C   0  0  0  0  0  0  0  0  0  0  0  0
   13.6111   -3.7070   25.7820 N   0  0  0  0  0  0  0  0  0  0  0  0
   13.8069   -2.2390   26.0252 C   0  0  0  0  0  0  0  0  0  0  0  0
   13.3626   -4.3793   27.0169 C   0  0  0  0  0  0  0  0  0  0  0  0
   14.6780   -4.8477   27.6031 C   0  0  0  0  0  0  0  0  0  0  0  0
   12.3292   -4.6231   27.5806 O   0  0  0  0  0  0  0  0  0  0  0  0
   13.9145   -3.5386   21.3764 C   0  0  0  0  0  0  0  0  0  0  0  0
   15.7325   -0.6224   16.0074 H   0  0  0  0  0  0  0  0  0  0  0  0
   15.0075   -1.1039   14.4585 H   0  0  0  0  0  0  0  0  0  0  0  0
   16.6245   -1.6645   14.8881 H   0  0  0  0  0  0  0  0  0  0  0  0
   14.9489   -3.4938   15.2230 H   0  0  0  0  0  0  0  0  0  0  0  0
   15.7880   -3.0503   16.6865 H   0  0  0  0  0  0  0  0  0  0  0  0
   13.8870   -1.5629   17.3231 H   0  0  0  0  0  0  0  0  0  0  0  0
   12.8230   -0.9332   15.3153 H   0  0  0  0  0  0  0  0  0  0  0  0
   11.6510   -1.8569   16.2274 H   0  0  0  0  0  0  0  0  0  0  0  0
   11.4944   -2.4770   13.9017 H   0  0  0  0  0  0  0  0  0  0  0  0
   12.1430   -3.8727   14.7673 H   0  0  0  0  0  0  0  0  0  0  0  0
   13.2142   -2.8458   13.7948 H   0  0  0  0  0  0  0  0  0  0  0  0
   14.8507   -3.0090   18.6269 H   0  0  0  0  0  0  0  0  0  0  0  0
   13.1162   -5.1536   19.8309 H   0  0  0  0  0  0  0  0  0  0  0  0
   15.1763   -6.3863   19.7710 H   0  0  0  0  0  0  0  0  0  0  0  0
   16.1397   -4.9073   19.6317 H   0  0  0  0  0  0  0  0  0  0  0  0
   16.4189   -5.1930   21.9365 H   0  0  0  0  0  0  0  0  0  0  0  0
   14.8540   -6.0499   22.1271 H   0  0  0  0  0  0  0  0  0  0  0  0
   15.3492   -2.8302   22.1996 H   0  0  0  0  0  0  0  0  0  0  0  0
   14.8497   -3.9795   23.0694 H   0  0  0  0  0  0  0  0  0  0  0  0
   12.9306   -2.2800   24.1363 H   0  0  0  0  0  0  0  0  0  0  0  0
   11.0397   -2.4494   26.0848 H   0  0  0  0  0  0  0  0  0  0  0  0
   10.7241   -4.0429   25.3834 H   0  0  0  0  0  0  0  0  0  0  0  0
   10.5783   -2.5918   24.3938 H   0  0  0  0  0  0  0  0  0  0  0  0
   14.4918   -2.1750   26.8853 H   0  0  0  0  0  0  0  0  0  0  0  0
   12.9339   -1.6749   26.3773 H   0  0  0  0  0  0  0  0  0  0  0  0
   14.3842   -1.7431   25.2299 H   0  0  0  0  0  0  0  0  0  0  0  0
   15.5209   -4.6446   26.9359 H   0  0  0  0  0  0  0  0  0  0  0  0
   14.8487   -4.3333   28.5527 H   0  0  0  0  0  0  0  0  0  0  0  0
   14.6271   -5.9271   27.7715 H   0  0  0  0  0  0  0  0  0  0  0  0
   14.0379   -2.3261   21.0727 H   0  0  0  0  0  0  0  0  0  0  0  0
   12.9749   -3.2189   20.7884 H   0  0  0  0  0  0  0  0  0  0  0  0
  1  2  1  0
  2  3  1  0
  3  4  1  0
  4  5  1  0
  3  6  1  0
  6  7  2  0
  6  8  1  0
  8  9  1  0
  9 10  1  0
 10 11  1  0
 11 12  1  0
 12 13  1  0
 13 14  1  0
 14 15  2  0
 14 16  1  0
 16 17  1  0
 16 18  1  0
 18 19  1  0
 18 20  1  0
 20 21  1  0
 20 22  2  0
 13 23  1  0
 23  9  1  0
  1 24  1  0
  1 25  1  0
  1 26  1  0
  2 27  1  0
  2 28  1  0
  3 29  1  0
  4 30  1  0
  4 31  1  0
  5 32  1  0
  5 33  1  0
  5 34  1  0
  8 35  1  0
  9 36  1  0
 10 37  1  0
 10 38  1  0
 11 39  1  0
 11 40  1  0
 12 41  1  0
 12 42  1  0
 16 43  1  0
 17 44  1  0
 17 45  1  0
 17 46  1  0
 19 47  1  0
 19 48  1  0
 19 49  1  0
 21 50  1  0
 21 51  1  0
 21 52  1  0
 23 53  1  0
 23 54  1  0
M  END
>  <Energy>  (745) 
658.92679362697015

>  <compound_id>  (745) 
5706

>  <target_id>  (745) 
1

>  <reference_id>  (745) 
44

>  <inspiration_ids>  (745) 
[44, 27]

>  <energy_score>  (745) 
586.5830197284662

>  <distance_score>  (745) 
9.47549576438318

>  <path>  (745) 
/opt/xchem-fragalysis-2/maxwin/BulkDock/SCRATCH/511018/C5706-P44/C5706-P44.minimised.mol

>  <scratch_subdir>  (745) 
/opt/xchem-fragalysis-2/maxwin/BulkDock/SCRATCH/511018/C5706-P44

>  <fragmenstein_runtime>  (745) 
27.621347427368164

>  <fragmenstein_outcome>  (745) 
too moved

>  <fragmenstein_mode>  (745) 
expansion

>  <fragmenstein_error>  (745) 


$$$$
C5706-P27
     RDKit          3D

 54 54  0  0  0  0  0  0  0  0999 V2000
   14.7227    1.5045   15.8938 C   0  0  0  0  0  0  0  0  0  0  0  0
   15.2008    0.7902   17.1467 C   0  0  0  0  0  0  0  0  0  0  0  0
   14.1909   -0.2217   17.7086 C   0  0  0  0  0  0  0  0  0  0  0  0
   13.9458   -1.4352   16.7754 C   0  0  0  0  0  0  0  0  0  0  0  0
   12.7316   -1.2796   15.8631 C   0  0  0  0  0  0  0  0  0  0  0  0
   14.6866   -0.6839   19.1099 C   0  0  0  0  0  0  0  0  0  0  0  0
   15.2568   -1.7297   19.2215 O   0  0  0  0  0  0  0  0  0  0  0  0
   14.3052    0.2900   20.1020 N   0  0  0  0  0  0  0  0  0  0  0  0
   14.4071    0.2631   21.5509 C   0  0  0  0  0  0  0  0  0  0  0  0
   15.8134    0.5036   22.0219 C   0  0  0  0  0  0  0  0  0  0  0  0
   15.5218    1.2965   23.2603 C   0  0  0  0  0  0  0  0  0  0  0  0
   14.0165    2.0328   22.9246 C   0  0  0  0  0  0  0  0  0  0  0  0
   12.5378    1.0699   23.4402 N   0  0  0  0  0  0  0  0  0  0  0  0
   12.4497    1.1755   24.8160 C   0  0  0  0  0  0  0  0  0  0  0  0
   12.9705    0.3839   25.5998 O   0  0  0  0  0  0  0  0  0  0  0  0
   11.5131    2.3337   25.4146 C   0  0  0  0  0  0  0  0  0  0  0  0
   10.1941    2.3763   24.5742 C   0  0  0  0  0  0  0  0  0  0  0  0
   11.8408    3.8115   25.7054 N   0  0  0  0  0  0  0  0  0  0  0  0
   12.9259    3.1842   26.5372 C   0  0  0  0  0  0  0  0  0  0  0  0
   12.3885    4.8233   24.8690 C   0  0  0  0  0  0  0  0  0  0  0  0
   12.3541    6.1502   25.5987 C   0  0  0  0  0  0  0  0  0  0  0  0
   12.8200    4.7630   23.7492 O   0  0  0  0  0  0  0  0  0  0  0  0
   13.4473    1.5463   22.3804 C   0  0  0  0  0  0  0  0  0  0  0  0
   13.7283    1.9382   16.0374 H   0  0  0  0  0  0  0  0  0  0  0  0
   14.6946    0.8271   15.0361 H   0  0  0  0  0  0  0  0  0  0  0  0
   15.4119    2.3172   15.6413 H   0  0  0  0  0  0  0  0  0  0  0  0
   16.1564    0.2923   16.9400 H   0  0  0  0  0  0  0  0  0  0  0  0
   15.4190    1.5523   17.9052 H   0  0  0  0  0  0  0  0  0  0  0  0
   13.2318    0.2873   17.8517 H   0  0  0  0  0  0  0  0  0  0  0  0
   13.7705   -2.3400   17.3705 H   0  0  0  0  0  0  0  0  0  0  0  0
   14.8360   -1.6345   16.1672 H   0  0  0  0  0  0  0  0  0  0  0  0
   12.5965   -2.1851   15.2626 H   0  0  0  0  0  0  0  0  0  0  0  0
   12.8390   -0.4378   15.1762 H   0  0  0  0  0  0  0  0  0  0  0  0
   11.8201   -1.1266   16.4476 H   0  0  0  0  0  0  0  0  0  0  0  0
   13.9093    1.0980   19.6368 H   0  0  0  0  0  0  0  0  0  0  0  0
   14.0558   -0.7112   21.9099 H   0  0  0  0  0  0  0  0  0  0  0  0
   16.3717   -0.4155   22.2192 H   0  0  0  0  0  0  0  0  0  0  0  0
   16.3848    1.1082   21.3086 H   0  0  0  0  0  0  0  0  0  0  0  0
   16.2757    2.0690   23.4435 H   0  0  0  0  0  0  0  0  0  0  0  0
   15.4177    0.6621   24.1482 H   0  0  0  0  0  0  0  0  0  0  0  0
   14.1105    3.1981   22.5685 H   0  0  0  0  0  0  0  0  0  0  0  0
   14.0847    2.5296   23.9682 H   0  0  0  0  0  0  0  0  0  0  0  0
   11.1031    1.8982   26.3472 H   0  0  0  0  0  0  0  0  0  0  0  0
    9.4213    2.9556   25.0913 H   0  0  0  0  0  0  0  0  0  0  0  0
   10.3680    2.8429   23.5984 H   0  0  0  0  0  0  0  0  0  0  0  0
    9.8115    1.3651   24.4057 H   0  0  0  0  0  0  0  0  0  0  0  0
   12.6014    2.5314   27.3612 H   0  0  0  0  0  0  0  0  0  0  0  0
   13.7881    2.8172   25.9723 H   0  0  0  0  0  0  0  0  0  0  0  0
   13.3660    4.0325   27.0859 H   0  0  0  0  0  0  0  0  0  0  0  0
   11.8686    6.8941   24.9606 H   0  0  0  0  0  0  0  0  0  0  0  0
   13.3784    6.4638   25.8176 H   0  0  0  0  0  0  0  0  0  0  0  0
   11.7940    6.0880   26.5364 H   0  0  0  0  0  0  0  0  0  0  0  0
   12.6301    0.9992   21.7731 H   0  0  0  0  0  0  0  0  0  0  0  0
   12.9438    2.3321   21.5409 H   0  0  0  0  0  0  0  0  0  0  0  0
  1  2  1  0
  2  3  1  0
  3  4  1  0
  4  5  1  0
  3  6  1  0
  6  7  2  0
  6  8  1  0
  8  9  1  0
  9 10  1  0
 10 11  1  0
 11 12  1  0
 12 13  1  0
 13 14  1  0
 14 15  2  0
 14 16  1  0
 16 17  1  0
 16 18  1  0
 18 19  1  0
 18 20  1  0
 20 21  1  0
 20 22  2  0
 13 23  1  0
 23  9  1  0
  1 24  1  0
  1 25  1  0
  1 26  1  0
  2 27  1  0
  2 28  1  0
  3 29  1  0
  4 30  1  0
  4 31  1  0
  5 32  1  0
  5 33  1  0
  5 34  1  0
  8 35  1  0
  9 36  1  0
 10 37  1  0
 10 38  1  0
 11 39  1  0
 11 40  1  0
 12 41  1  0
 12 42  1  0
 16 43  1  0
 17 44  1  0
 17 45  1  0
 17 46  1  0
 19 47  1  0
 19 48  1  0
 19 49  1  0
 21 50  1  0
 21 51  1  0
 21 52  1  0
 23 53  1  0
 23 54  1  0
M  END
>  <Energy>  (746) 
657.63195640084928

>  <compound_id>  (746) 
5706

>  <target_id>  (746) 
1

>  <reference_id>  (746) 
27

>  <inspiration_ids>  (746) 
[44, 27]

>  <energy_score>  (746) 
585.2881825023424

>  <distance_score>  (746) 
9.446280412950395

>  <path>  (746) 
/opt/xchem-fragalysis-2/maxwin/BulkDock/SCRATCH/511018/C5706-P27/C5706-P27.minimised.mol

>  <scratch_subdir>  (746) 
/opt/xchem-fragalysis-2/maxwin/BulkDock/SCRATCH/511018/C5706-P27

>  <fragmenstein_runtime>  (746) 
26.991415977478027

>  <fragmenstein_outcome>  (746) 
too moved

>  <fragmenstein_mode>  (746) 
expansion

>  <fragmenstein_error>  (746) 


$$$$
C5710-P44
     RDKit          3D

 51 51  0  0  0  0  0  0  0  0999 V2000
   14.2477    1.9004   21.9766 C   0  0  0  0  0  0  0  0  0  0  0  0
   13.3411    1.2360   23.0152 C   0  0  0  0  0  0  0  0  0  0  0  0
   13.8065   -0.1705   23.4607 C   0  0  0  0  0  0  0  0  0  0  0  0
   14.0725   -1.0952   22.2346 C   0  0  0  0  0  0  0  0  0  0  0  0
   13.9282   -2.5940   22.4291 C   0  0  0  0  0  0  0  0  0  0  0  0
   13.0687   -0.8036   24.7181 C   0  0  0  0  0  0  0  0  0  0  0  0
   13.7641   -1.4987   25.4109 O   0  0  0  0  0  0  0  0  0  0  0  0
   11.6822   -0.4108   24.8653 N   0  0  0  0  0  0  0  0  0  0  0  0
   10.6589   -0.8159   25.8537 C   0  0  0  0  0  0  0  0  0  0  0  0
   11.2897   -1.1730   27.2061 C   0  0  0  0  0  0  0  0  0  0  0  0
   10.4288   -0.7735   28.4038 C   0  0  0  0  0  0  0  0  0  0  0  0
    8.9243   -0.9833   28.2100 C   0  0  0  0  0  0  0  0  0  0  0  0
    8.4200   -0.4437   26.9555 N   0  0  0  0  0  0  0  0  0  0  0  0
    7.0579   -0.5197   26.6776 C   0  0  0  0  0  0  0  0  0  0  0  0
    6.6582   -1.5270   26.0848 O   0  0  0  0  0  0  0  0  0  0  0  0
    5.9803    0.5207   27.1690 C   0  0  0  0  0  0  0  0  0  0  0  0
    5.6625    0.2718   28.6566 C   0  0  0  0  0  0  0  0  0  0  0  0
    6.4495    1.9619   26.9757 C   0  0  0  0  0  0  0  0  0  0  0  0
    4.6577    0.2669   26.3388 C   0  0  0  0  0  0  0  0  0  0  0  0
    3.5047    1.1455   26.6525 C   0  0  0  0  0  0  0  0  0  0  0  0
    2.5868    1.8218   26.8790 N   0  0  0  0  0  0  0  0  0  0  0  0
    9.4382    0.1560   26.0557 C   0  0  0  0  0  0  0  0  0  0  0  0
   13.8860    2.9108   21.7601 H   0  0  0  0  0  0  0  0  0  0  0  0
   14.2748    1.3498   21.0330 H   0  0  0  0  0  0  0  0  0  0  0  0
   15.2715    1.9832   22.3550 H   0  0  0  0  0  0  0  0  0  0  0  0
   12.3250    1.2080   22.6143 H   0  0  0  0  0  0  0  0  0  0  0  0
   13.2942    1.8842   23.8996 H   0  0  0  0  0  0  0  0  0  0  0  0
   14.8108    0.0160   23.8794 H   0  0  0  0  0  0  0  0  0  0  0  0
   13.4503   -0.7976   21.3940 H   0  0  0  0  0  0  0  0  0  0  0  0
   15.0994   -0.9059   21.8923 H   0  0  0  0  0  0  0  0  0  0  0  0
   14.6453   -2.9571   23.1721 H   0  0  0  0  0  0  0  0  0  0  0  0
   14.1303   -3.1169   21.4886 H   0  0  0  0  0  0  0  0  0  0  0  0
   12.9248   -2.8748   22.7585 H   0  0  0  0  0  0  0  0  0  0  0  0
   11.3993    0.1138   24.0466 H   0  0  0  0  0  0  0  0  0  0  0  0
   10.2521   -1.7499   25.4443 H   0  0  0  0  0  0  0  0  0  0  0  0
   12.2636   -0.6869   27.3358 H   0  0  0  0  0  0  0  0  0  0  0  0
   11.4800   -2.2533   27.2363 H   0  0  0  0  0  0  0  0  0  0  0  0
   10.7645   -1.3144   29.2962 H   0  0  0  0  0  0  0  0  0  0  0  0
   10.6030    0.2906   28.6130 H   0  0  0  0  0  0  0  0  0  0  0  0
    8.3768   -0.5359   29.0426 H   0  0  0  0  0  0  0  0  0  0  0  0
    8.6935   -2.0553   28.2141 H   0  0  0  0  0  0  0  0  0  0  0  0
    5.4242   -0.7822   28.8376 H   0  0  0  0  0  0  0  0  0  0  0  0
    4.8194    0.8771   29.0053 H   0  0  0  0  0  0  0  0  0  0  0  0
    6.5151    0.5301   29.2917 H   0  0  0  0  0  0  0  0  0  0  0  0
    6.6394    2.1758   25.9193 H   0  0  0  0  0  0  0  0  0  0  0  0
    5.7158    2.6874   27.3420 H   0  0  0  0  0  0  0  0  0  0  0  0
    7.3861    2.1465   27.5139 H   0  0  0  0  0  0  0  0  0  0  0  0
    4.8868    0.3675   25.2696 H   0  0  0  0  0  0  0  0  0  0  0  0
    4.3308   -0.7716   26.4821 H   0  0  0  0  0  0  0  0  0  0  0  0
    8.9815    0.3748   25.0980 H   0  0  0  0  0  0  0  0  0  0  0  0
    9.7637    1.1088   26.4886 H   0  0  0  0  0  0  0  0  0  0  0  0
  1  2  1  0
  2  3  1  0
  3  4  1  0
  4  5  1  0
  3  6  1  0
  6  7  2  0
  6  8  1  0
  8  9  1  0
  9 10  1  0
 10 11  1  0
 11 12  1  0
 12 13  1  0
 13 14  1  0
 14 15  2  0
 14 16  1  0
 16 17  1  0
 16 18  1  0
 16 19  1  0
 19 20  1  0
 20 21  3  0
 13 22  1  0
 22  9  1  0
  1 23  1  0
  1 24  1  0
  1 25  1  0
  2 26  1  0
  2 27  1  0
  3 28  1  0
  4 29  1  0
  4 30  1  0
  5 31  1  0
  5 32  1  0
  5 33  1  0
  8 34  1  0
  9 35  1  0
 10 36  1  0
 10 37  1  0
 11 38  1  0
 11 39  1  0
 12 40  1  0
 12 41  1  0
 17 42  1  0
 17 43  1  0
 17 44  1  0
 18 45  1  0
 18 46  1  0
 18 47  1  0
 19 48  1  0
 19 49  1  0
 22 50  1  0
 22 51  1  0
M  END
>  <Energy>  (747) 
40.363509136828917

>  <compound_id>  (747) 
5710

>  <target_id>  (747) 
1

>  <reference_id>  (747) 
44

>  <inspiration_ids>  (747) 
[44, 27]

>  <energy_score>  (747) 
-23.03670472986937

>  <distance_score>  (747) 
8.290355598466178

>  <path>  (747) 
/opt/xchem-fragalysis-2/maxwin/BulkDock/SCRATCH/511018/C5710-P44/C5710-P44.minimised.mol

>  <scratch_subdir>  (747) 
/opt/xchem-fragalysis-2/maxwin/BulkDock/SCRATCH/511018/C5710-P44

>  <fragmenstein_runtime>  (747) 
23.146048307418823

>  <fragmenstein_outcome>  (747) 
too moved

>  <fragmenstein_mode>  (747) 
expansion

>  <fragmenstein_error>  (747) 


$$$$
C5710-P27
     RDKit          3D

 51 51  0  0  0  0  0  0  0  0999 V2000
   12.4310   -0.6725   16.0066 C   0  0  0  0  0  0  0  0  0  0  0  0
   13.6368   -1.0109   16.8703 C   0  0  0  0  0  0  0  0  0  0  0  0
   14.0467   -2.5079   16.7955 C   0  0  0  0  0  0  0  0  0  0  0  0
   15.2745   -2.6884   15.8869 C   0  0  0  0  0  0  0  0  0  0  0  0
   15.1271   -2.0710   14.4997 C   0  0  0  0  0  0  0  0  0  0  0  0
   14.3425   -2.9661   18.2536 C   0  0  0  0  0  0  0  0  0  0  0  0
   15.4608   -2.9064   18.6741 O   0  0  0  0  0  0  0  0  0  0  0  0
   13.1103   -3.3204   18.9089 N   0  0  0  0  0  0  0  0  0  0  0  0
   12.8244   -3.6191   20.2988 C   0  0  0  0  0  0  0  0  0  0  0  0
   13.2867   -4.9042   20.8608 C   0  0  0  0  0  0  0  0  0  0  0  0
   12.5752   -4.6752   22.1638 C   0  0  0  0  0  0  0  0  0  0  0  0
   11.0611   -3.5053   21.9810 C   0  0  0  0  0  0  0  0  0  0  0  0
    9.0293   -3.4884   21.1299 N   0  0  0  0  0  0  0  0  0  0  0  0
    7.6820   -3.9935   22.5966 C   0  0  0  0  0  0  0  0  0  0  0  0
    7.5039   -5.2417   22.5637 O   0  0  0  0  0  0  0  0  0  0  0  0
    6.5864   -3.2049   24.2855 C   0  0  0  0  0  0  0  0  0  0  0  0
    8.0489   -2.7675   25.5481 C   0  0  0  0  0  0  0  0  0  0  0  0
    6.1776   -2.0480   25.8566 C   0  0  0  0  0  0  0  0  0  0  0  0
    4.9490   -2.1624   23.9736 C   0  0  0  0  0  0  0  0  0  0  0  0
    4.0112   -1.3724   24.9830 C   0  0  0  0  0  0  0  0  0  0  0  0
    3.3942   -0.7700   25.7721 N   0  0  0  0  0  0  0  0  0  0  0  0
   11.1049   -3.3650   21.0689 C   0  0  0  0  0  0  0  0  0  0  0  0
   12.1621    0.3812   16.1308 H   0  0  0  0  0  0  0  0  0  0  0  0
   11.5651   -1.2790   16.2867 H   0  0  0  0  0  0  0  0  0  0  0  0
   12.6310   -0.8393   14.9455 H   0  0  0  0  0  0  0  0  0  0  0  0
   14.4745   -0.3640   16.5835 H   0  0  0  0  0  0  0  0  0  0  0  0
   13.4107   -0.7144   17.8975 H   0  0  0  0  0  0  0  0  0  0  0  0
   13.2277   -3.1158   16.3911 H   0  0  0  0  0  0  0  0  0  0  0  0
   16.1686   -2.2578   16.3551 H   0  0  0  0  0  0  0  0  0  0  0  0
   15.4797   -3.7614   15.7886 H   0  0  0  0  0  0  0  0  0  0  0  0
   15.9224   -2.4386   13.8431 H   0  0  0  0  0  0  0  0  0  0  0  0
   15.2223   -0.9814   14.5359 H   0  0  0  0  0  0  0  0  0  0  0  0
   14.1662   -2.3093   14.0385 H   0  0  0  0  0  0  0  0  0  0  0  0
   12.3659   -3.3439   18.2226 H   0  0  0  0  0  0  0  0  0  0  0  0
   13.4211   -2.8413   20.8111 H   0  0  0  0  0  0  0  0  0  0  0  0
   14.3713   -4.9917   20.9598 H   0  0  0  0  0  0  0  0  0  0  0  0
   12.8991   -5.7665   20.3219 H   0  0  0  0  0  0  0  0  0  0  0  0
   13.2472   -4.0622   22.7941 H   0  0  0  0  0  0  0  0  0  0  0  0
   12.4083   -5.5751   22.7635 H   0  0  0  0  0  0  0  0  0  0  0  0
   11.2151   -2.7162   22.8773 H   0  0  0  0  0  0  0  0  0  0  0  0
   11.1820   -4.0194   23.0968 H   0  0  0  0  0  0  0  0  0  0  0  0
    8.2485   -3.5512   26.2891 H   0  0  0  0  0  0  0  0  0  0  0  0
    8.0824   -1.7923   26.0831 H   0  0  0  0  0  0  0  0  0  0  0  0
    8.9774   -2.4084   25.1099 H   0  0  0  0  0  0  0  0  0  0  0  0
    6.2379   -0.9823   25.9132 H   0  0  0  0  0  0  0  0  0  0  0  0
    6.6235   -2.3003   26.8671 H   0  0  0  0  0  0  0  0  0  0  0  0
    5.1838   -2.2888   26.2848 H   0  0  0  0  0  0  0  0  0  0  0  0
    4.0770   -2.8107   23.7951 H   0  0  0  0  0  0  0  0  0  0  0  0
    5.1097   -1.6144   23.0416 H   0  0  0  0  0  0  0  0  0  0  0  0
   11.3490   -2.7888   20.1816 H   0  0  0  0  0  0  0  0  0  0  0  0
   11.1359   -4.6800   20.6929 H   0  0  0  0  0  0  0  0  0  0  0  0
  1  2  1  0
  2  3  1  0
  3  4  1  0
  4  5  1  0
  3  6  1  0
  6  7  2  0
  6  8  1  0
  8  9  1  0
  9 10  1  0
 10 11  1  0
 11 12  1  0
 12 13  1  0
 13 14  1  0
 14 15  2  0
 14 16  1  0
 16 17  1  0
 16 18  1  0
 16 19  1  0
 19 20  1  0
 20 21  3  0
 13 22  1  0
 22  9  1  0
  1 23  1  0
  1 24  1  0
  1 25  1  0
  2 26  1  0
  2 27  1  0
  3 28  1  0
  4 29  1  0
  4 30  1  0
  5 31  1  0
  5 32  1  0
  5 33  1  0
  8 34  1  0
  9 35  1  0
 10 36  1  0
 10 37  1  0
 11 38  1  0
 11 39  1  0
 12 40  1  0
 12 41  1  0
 17 42  1  0
 17 43  1  0
 17 44  1  0
 18 45  1  0
 18 46  1  0
 18 47  1  0
 19 48  1  0
 19 49  1  0
 22 50  1  0
 22 51  1  0
M  END
>  <Energy>  (748) 
1645.3587692540143

>  <compound_id>  (748) 
5710

>  <target_id>  (748) 
1

>  <reference_id>  (748) 
27

>  <inspiration_ids>  (748) 
[44, 27]

>  <energy_score>  (748) 
1581.9585553873208

>  <distance_score>  (748) 
6.402132893122195

>  <path>  (748) 
/opt/xchem-fragalysis-2/maxwin/BulkDock/SCRATCH/511018/C5710-P27/C5710-P27.minimised.mol

>  <scratch_subdir>  (748) 
/opt/xchem-fragalysis-2/maxwin/BulkDock/SCRATCH/511018/C5710-P27

>  <fragmenstein_runtime>  (748) 
20.552513599395752

>  <fragmenstein_outcome>  (748) 
too moved

>  <fragmenstein_mode>  (748) 
expansion

>  <fragmenstein_error>  (748) 


$$$$
C5721-P44
     RDKit          3D

 53 53  0  0  0  0  0  0  0  0999 V2000
   14.9005    1.5658   20.9505 C   0  0  0  0  0  0  0  0  0  0  0  0
   15.5510    0.7947   22.0986 C   0  0  0  0  0  0  0  0  0  0  0  0
   14.6588   -0.2723   22.7973 C   0  0  0  0  0  0  0  0  0  0  0  0
   14.0982   -1.2723   21.7653 C   0  0  0  0  0  0  0  0  0  0  0  0
   15.0980   -1.9486   20.8330 C   0  0  0  0  0  0  0  0  0  0  0  0
   13.5905    0.4220   23.7642 C   0  0  0  0  0  0  0  0  0  0  0  0
   13.6164    1.6163   23.8669 O   0  0  0  0  0  0  0  0  0  0  0  0
   12.7932   -0.5643   24.4537 N   0  0  0  0  0  0  0  0  0  0  0  0
   11.8433   -0.4293   25.5527 C   0  0  0  0  0  0  0  0  0  0  0  0
   10.7501    0.6162   25.4043 C   0  0  0  0  0  0  0  0  0  0  0  0
    9.7739    0.5245   26.6287 C   0  0  0  0  0  0  0  0  0  0  0  0
    8.7848   -0.6560   26.7499 N   0  0  0  0  0  0  0  0  0  0  0  0
    7.7128   -0.3226   27.6953 C   0  0  0  0  0  0  0  0  0  0  0  0
    7.6364   -0.5046   28.8815 O   0  0  0  0  0  0  0  0  0  0  0  0
    6.5149    0.3182   26.9781 C   0  0  0  0  0  0  0  0  0  0  0  0
    4.9454    0.2269   27.9435 S   0  0  0  0  0  0  0  0  0  0  0  0
    5.1318    0.7618   29.2816 O   0  0  0  0  0  0  0  0  0  0  0  0
    4.3324   -1.0785   27.7568 O   0  0  0  0  0  0  0  0  0  0  0  0
    3.8413    1.4213   27.1562 C   0  0  0  0  0  0  0  0  0  0  0  0
    2.4621    1.4079   27.8216 C   0  0  0  0  0  0  0  0  0  0  0  0
    3.7155    1.1805   25.6649 C   0  0  0  0  0  0  0  0  0  0  0  0
   10.0720   -1.4311   26.9544 C   0  0  0  0  0  0  0  0  0  0  0  0
   11.0770   -1.7078   25.8230 C   0  0  0  0  0  0  0  0  0  0  0  0
   14.7070    0.9223   20.0909 H   0  0  0  0  0  0  0  0  0  0  0  0
   15.5731    2.3613   20.6130 H   0  0  0  0  0  0  0  0  0  0  0  0
   13.9619    2.0328   21.2603 H   0  0  0  0  0  0  0  0  0  0  0  0
   16.4610    0.3125   21.7209 H   0  0  0  0  0  0  0  0  0  0  0  0
   15.8968    1.5189   22.8471 H   0  0  0  0  0  0  0  0  0  0  0  0
   15.3179   -0.8301   23.4784 H   0  0  0  0  0  0  0  0  0  0  0  0
   13.5470   -2.0709   22.2694 H   0  0  0  0  0  0  0  0  0  0  0  0
   13.3984   -0.7302   21.1482 H   0  0  0  0  0  0  0  0  0  0  0  0
   15.8670   -2.4728   21.4089 H   0  0  0  0  0  0  0  0  0  0  0  0
   15.5918   -1.2363   20.1675 H   0  0  0  0  0  0  0  0  0  0  0  0
   14.5850   -2.6834   20.2038 H   0  0  0  0  0  0  0  0  0  0  0  0
   12.9763   -1.4741   24.0537 H   0  0  0  0  0  0  0  0  0  0  0  0
   12.4536   -0.1731   26.4282 H   0  0  0  0  0  0  0  0  0  0  0  0
   10.1929    0.4920   24.4707 H   0  0  0  0  0  0  0  0  0  0  0  0
   11.1944    1.6180   25.3763 H   0  0  0  0  0  0  0  0  0  0  0  0
   10.2627    0.7658   27.5888 H   0  0  0  0  0  0  0  0  0  0  0  0
    9.1076    1.3902   26.4912 H   0  0  0  0  0  0  0  0  0  0  0  0
    6.7248    1.3796   26.8231 H   0  0  0  0  0  0  0  0  0  0  0  0
    6.3301   -0.1905   26.0299 H   0  0  0  0  0  0  0  0  0  0  0  0
    4.3010    2.4029   27.3226 H   0  0  0  0  0  0  0  0  0  0  0  0
    1.9716    0.4361   27.7002 H   0  0  0  0  0  0  0  0  0  0  0  0
    2.5418    1.6078   28.8950 H   0  0  0  0  0  0  0  0  0  0  0  0
    1.8125    2.1734   27.3846 H   0  0  0  0  0  0  0  0  0  0  0  0
    3.3714    0.1646   25.4568 H   0  0  0  0  0  0  0  0  0  0  0  0
    3.0264    1.8986   25.2102 H   0  0  0  0  0  0  0  0  0  0  0  0
    4.6792    1.3051   25.1625 H   0  0  0  0  0  0  0  0  0  0  0  0
    9.6626   -2.4275   27.1866 H   0  0  0  0  0  0  0  0  0  0  0  0
   10.5601   -1.1878   27.9148 H   0  0  0  0  0  0  0  0  0  0  0  0
   11.7712   -2.4990   26.1310 H   0  0  0  0  0  0  0  0  0  0  0  0
   10.5619   -2.0723   24.9302 H   0  0  0  0  0  0  0  0  0  0  0  0
  1  2  1  0
  2  3  1  0
  3  4  1  0
  4  5  1  0
  3  6  1  0
  6  7  2  0
  6  8  1  0
  8  9  1  0
  9 10  1  0
 10 11  1  0
 11 12  1  0
 12 13  1  0
 13 14  2  0
 13 15  1  0
 15 16  1  0
 16 17  2  0
 16 18  2  0
 16 19  1  0
 19 20  1  0
 19 21  1  0
 12 22  1  0
 22 23  1  0
 23  9  1  0
  1 24  1  0
  1 25  1  0
  1 26  1  0
  2 27  1  0
  2 28  1  0
  3 29  1  0
  4 30  1  0
  4 31  1  0
  5 32  1  0
  5 33  1  0
  5 34  1  0
  8 35  1  0
  9 36  1  0
 10 37  1  0
 10 38  1  0
 11 39  1  0
 11 40  1  0
 15 41  1  0
 15 42  1  0
 19 43  1  0
 20 44  1  0
 20 45  1  0
 20 46  1  0
 21 47  1  0
 21 48  1  0
 21 49  1  0
 22 50  1  0
 22 51  1  0
 23 52  1  0
 23 53  1  0
M  END
>  <Energy>  (749) 
48.906680116072089

>  <compound_id>  (749) 
5721

>  <target_id>  (749) 
1

>  <reference_id>  (749) 
44

>  <inspiration_ids>  (749) 
[44, 27]

>  <energy_score>  (749) 
32.44869336361555

>  <distance_score>  (749) 
7.339001740206524

>  <path>  (749) 
/opt/xchem-fragalysis-2/maxwin/BulkDock/SCRATCH/511018/C5721-P44/C5721-P44.minimised.mol

>  <scratch_subdir>  (749) 
/opt/xchem-fragalysis-2/maxwin/BulkDock/SCRATCH/511018/C5721-P44

>  <fragmenstein_runtime>  (749) 
17.598758935928345

>  <fragmenstein_outcome>  (749) 
too moved

>  <fragmenstein_mode>  (749) 
expansion

>  <fragmenstein_error>  (749) 


$$$$
C5721-P27
     RDKit          3D

 53 53  0  0  0  0  0  0  0  0999 V2000
   13.8129    2.8538   20.8960 C   0  0  0  0  0  0  0  0  0  0  0  0
   13.0813    2.3714   22.1481 C   0  0  0  0  0  0  0  0  0  0  0  0
   13.8011    1.2369   22.9197 C   0  0  0  0  0  0  0  0  0  0  0  0
   14.1494    0.0794   21.9616 C   0  0  0  0  0  0  0  0  0  0  0  0
   14.5205   -1.2342   22.6172 C   0  0  0  0  0  0  0  0  0  0  0  0
   13.0838    0.9449   24.3039 C   0  0  0  0  0  0  0  0  0  0  0  0
   13.7280    1.1443   25.2962 O   0  0  0  0  0  0  0  0  0  0  0  0
   11.7072    0.5650   24.1410 N   0  0  0  0  0  0  0  0  0  0  0  0
   10.6308    0.3949   25.1255 C   0  0  0  0  0  0  0  0  0  0  0  0
   10.7294   -0.8248   26.0074 C   0  0  0  0  0  0  0  0  0  0  0  0
    9.5055   -0.8075   27.0041 C   0  0  0  0  0  0  0  0  0  0  0  0
    8.9294    0.3076   27.9579 N   0  0  0  0  0  0  0  0  0  0  0  0
    7.5266    0.5773   27.6315 C   0  0  0  0  0  0  0  0  0  0  0  0
    7.0414    1.3766   26.8731 O   0  0  0  0  0  0  0  0  0  0  0  0
    6.6253   -0.3972   28.4008 C   0  0  0  0  0  0  0  0  0  0  0  0
    5.0113    0.2577   28.9185 S   0  0  0  0  0  0  0  0  0  0  0  0
    5.2238    1.5178   29.6107 O   0  0  0  0  0  0  0  0  0  0  0  0
    4.3242   -0.8056   29.6427 O   0  0  0  0  0  0  0  0  0  0  0  0
    4.0012    0.5963   27.4590 C   0  0  0  0  0  0  0  0  0  0  0  0
    2.7102    1.3202   27.8579 C   0  0  0  0  0  0  0  0  0  0  0  0
    3.6746   -0.6843   26.7041 C   0  0  0  0  0  0  0  0  0  0  0  0
   10.1847    1.0158   27.5370 C   0  0  0  0  0  0  0  0  0  0  0  0
   10.4085    1.5450   26.0898 C   0  0  0  0  0  0  0  0  0  0  0  0
   13.8495    2.0855   20.1192 H   0  0  0  0  0  0  0  0  0  0  0  0
   14.8379    3.1529   21.1366 H   0  0  0  0  0  0  0  0  0  0  0  0
   13.2986    3.7241   20.4762 H   0  0  0  0  0  0  0  0  0  0  0  0
   12.9546    3.2258   22.8254 H   0  0  0  0  0  0  0  0  0  0  0  0
   12.0690    2.0622   21.8697 H   0  0  0  0  0  0  0  0  0  0  0  0
   14.7740    1.6548   23.2252 H   0  0  0  0  0  0  0  0  0  0  0  0
   13.3557   -0.0680   21.2329 H   0  0  0  0  0  0  0  0  0  0  0  0
   15.0148    0.3879   21.3587 H   0  0  0  0  0  0  0  0  0  0  0  0
   15.4220   -1.1156   23.2274 H   0  0  0  0  0  0  0  0  0  0  0  0
   14.7278   -1.9943   21.8573 H   0  0  0  0  0  0  0  0  0  0  0  0
   13.7273   -1.6108   23.2684 H   0  0  0  0  0  0  0  0  0  0  0  0
   11.5236    0.4030   23.1554 H   0  0  0  0  0  0  0  0  0  0  0  0
    9.7270    0.3125   24.5231 H   0  0  0  0  0  0  0  0  0  0  0  0
   10.7091   -1.7507   25.4248 H   0  0  0  0  0  0  0  0  0  0  0  0
   11.6827   -0.8513   26.5515 H   0  0  0  0  0  0  0  0  0  0  0  0
    8.6470   -1.1805   26.4307 H   0  0  0  0  0  0  0  0  0  0  0  0
    9.7087   -1.6234   27.7158 H   0  0  0  0  0  0  0  0  0  0  0  0
    7.1217   -0.7045   29.3279 H   0  0  0  0  0  0  0  0  0  0  0  0
    6.4478   -1.2867   27.7918 H   0  0  0  0  0  0  0  0  0  0  0  0
    4.5895    1.2664   26.8321 H   0  0  0  0  0  0  0  0  0  0  0  0
    2.9316    2.2632   28.3681 H   0  0  0  0  0  0  0  0  0  0  0  0
    2.1068    1.5521   26.9745 H   0  0  0  0  0  0  0  0  0  0  0  0
    2.1048    0.7101   28.5367 H   0  0  0  0  0  0  0  0  0  0  0  0
    3.2200   -0.4547   25.7405 H   0  0  0  0  0  0  0  0  0  0  0  0
    4.5766   -1.2667   26.4957 H   0  0  0  0  0  0  0  0  0  0  0  0
    2.9891   -1.3263   27.2670 H   0  0  0  0  0  0  0  0  0  0  0  0
   11.0750    0.5661   28.0075 H   0  0  0  0  0  0  0  0  0  0  0  0
   10.0867    1.9485   28.1155 H   0  0  0  0  0  0  0  0  0  0  0  0
    9.5459    2.1425   25.7713 H   0  0  0  0  0  0  0  0  0  0  0  0
   11.2693    2.2236   26.1001 H   0  0  0  0  0  0  0  0  0  0  0  0
  1  2  1  0
  2  3  1  0
  3  4  1  0
  4  5  1  0
  3  6  1  0
  6  7  2  0
  6  8  1  0
  8  9  1  0
  9 10  1  0
 10 11  1  0
 11 12  1  0
 12 13  1  0
 13 14  2  0
 13 15  1  0
 15 16  1  0
 16 17  2  0
 16 18  2  0
 16 19  1  0
 19 20  1  0
 19 21  1  0
 12 22  1  0
 22 23  1  0
 23  9  1  0
  1 24  1  0
  1 25  1  0
  1 26  1  0
  2 27  1  0
  2 28  1  0
  3 29  1  0
  4 30  1  0
  4 31  1  0
  5 32  1  0
  5 33  1  0
  5 34  1  0
  8 35  1  0
  9 36  1  0
 10 37  1  0
 10 38  1  0
 11 39  1  0
 11 40  1  0
 15 41  1  0
 15 42  1  0
 19 43  1  0
 20 44  1  0
 20 45  1  0
 20 46  1  0
 21 47  1  0
 21 48  1  0
 21 49  1  0
 22 50  1  0
 22 51  1  0
 23 52  1  0
 23 53  1  0
M  END
>  <Energy>  (750) 
59.953736727851194

>  <compound_id>  (750) 
5721

>  <target_id>  (750) 
1

>  <reference_id>  (750) 
27

>  <inspiration_ids>  (750) 
[44, 27]

>  <energy_score>  (750) 
43.49574997539537

>  <distance_score>  (750) 
7.914795086360809

>  <path>  (750) 
/opt/xchem-fragalysis-2/maxwin/BulkDock/SCRATCH/511018/C5721-P27/C5721-P27.minimised.mol

>  <scratch_subdir>  (750) 
/opt/xchem-fragalysis-2/maxwin/BulkDock/SCRATCH/511018/C5721-P27

>  <fragmenstein_runtime>  (750) 
22.379769563674927

>  <fragmenstein_outcome>  (750) 
too moved

>  <fragmenstein_mode>  (750) 
expansion

>  <fragmenstein_error>  (750) 


$$$$
C5724-P44
     RDKit          3D

 58 58  0  0  0  0  0  0  0  0999 V2000
    1.1702    3.1288   26.6448 C   0  0  0  0  0  0  0  0  0  0  0  0
    1.8675    1.9798   27.3624 C   0  0  0  0  0  0  0  0  0  0  0  0
    3.3809    1.9287   27.0488 C   0  0  0  0  0  0  0  0  0  0  0  0
    4.0910    0.8729   27.7927 N   0  0  0  0  0  0  0  0  0  0  0  0
    3.6885   -0.4663   27.3609 C   0  0  0  0  0  0  0  0  0  0  0  0
    5.5815    1.0033   27.8124 C   0  0  0  0  0  0  0  0  0  0  0  0
    6.3824    1.1286   26.4925 C   0  0  0  0  0  0  0  0  0  0  0  0
    7.7683    0.3900   26.4441 C   0  0  0  0  0  0  0  0  0  0  0  0
    7.7950   -0.6961   25.9260 O   0  0  0  0  0  0  0  0  0  0  0  0
    8.8115    1.1460   27.0740 N   0  0  0  0  0  0  0  0  0  0  0  0
    9.5077    2.0580   26.0437 C   0  0  0  0  0  0  0  0  0  0  0  0
   10.3236    1.5276   24.8311 C   0  0  0  0  0  0  0  0  0  0  0  0
   11.6182    0.9215   25.3250 C   0  0  0  0  0  0  0  0  0  0  0  0
   12.4142    0.3536   24.2478 N   0  0  0  0  0  0  0  0  0  0  0  0
   13.7921    0.5822   23.8628 C   0  0  0  0  0  0  0  0  0  0  0  0
   14.6501    1.2384   24.3827 O   0  0  0  0  0  0  0  0  0  0  0  0
   14.1081   -0.1268   22.4966 C   0  0  0  0  0  0  0  0  0  0  0  0
   15.2493    0.5596   21.7059 C   0  0  0  0  0  0  0  0  0  0  0  0
   14.8553    1.9150   21.1304 C   0  0  0  0  0  0  0  0  0  0  0  0
   14.4186   -1.6224   22.6877 C   0  0  0  0  0  0  0  0  0  0  0  0
   14.2227   -2.4851   21.4393 C   0  0  0  0  0  0  0  0  0  0  0  0
   11.1529   -0.0355   26.4012 C   0  0  0  0  0  0  0  0  0  0  0  0
   10.2589    0.7749   27.3931 C   0  0  0  0  0  0  0  0  0  0  0  0
    1.2805    3.0377   25.5597 H   0  0  0  0  0  0  0  0  0  0  0  0
    0.1014    3.1303   26.8806 H   0  0  0  0  0  0  0  0  0  0  0  0
    1.5885    4.0922   26.9528 H   0  0  0  0  0  0  0  0  0  0  0  0
    1.3764    1.0475   27.0677 H   0  0  0  0  0  0  0  0  0  0  0  0
    1.7218    2.0945   28.4433 H   0  0  0  0  0  0  0  0  0  0  0  0
    3.5336    1.8117   25.9686 H   0  0  0  0  0  0  0  0  0  0  0  0
    3.8090    2.8998   27.3280 H   0  0  0  0  0  0  0  0  0  0  0  0
    3.8902   -0.6307   26.2973 H   0  0  0  0  0  0  0  0  0  0  0  0
    2.6267   -0.6496   27.5485 H   0  0  0  0  0  0  0  0  0  0  0  0
    4.2246   -1.2344   27.9303 H   0  0  0  0  0  0  0  0  0  0  0  0
    5.9876    0.1677   28.3977 H   0  0  0  0  0  0  0  0  0  0  0  0
    5.8132    1.8900   28.4177 H   0  0  0  0  0  0  0  0  0  0  0  0
    5.7947    0.7103   25.6661 H   0  0  0  0  0  0  0  0  0  0  0  0
    6.5254    2.1873   26.2497 H   0  0  0  0  0  0  0  0  0  0  0  0
    8.6643    2.5907   25.5815 H   0  0  0  0  0  0  0  0  0  0  0  0
   10.0347    2.8834   26.5537 H   0  0  0  0  0  0  0  0  0  0  0  0
   10.5407    2.3563   24.1468 H   0  0  0  0  0  0  0  0  0  0  0  0
    9.7466    0.7922   24.2682 H   0  0  0  0  0  0  0  0  0  0  0  0
   12.2376    1.7039   25.7820 H   0  0  0  0  0  0  0  0  0  0  0  0
   11.9980   -0.3326   23.6100 H   0  0  0  0  0  0  0  0  0  0  0  0
   13.2212   -0.0377   21.8833 H   0  0  0  0  0  0  0  0  0  0  0  0
   16.1267    0.6889   22.3510 H   0  0  0  0  0  0  0  0  0  0  0  0
   15.5703   -0.0705   20.8696 H   0  0  0  0  0  0  0  0  0  0  0  0
   14.5469    2.6085   21.9183 H   0  0  0  0  0  0  0  0  0  0  0  0
   15.7060    2.3604   20.6046 H   0  0  0  0  0  0  0  0  0  0  0  0
   14.0364    1.8205   20.4172 H   0  0  0  0  0  0  0  0  0  0  0  0
   13.8031   -2.0409   23.4935 H   0  0  0  0  0  0  0  0  0  0  0  0
   15.4577   -1.7247   23.0268 H   0  0  0  0  0  0  0  0  0  0  0  0
   13.1803   -2.7986   21.3588 H   0  0  0  0  0  0  0  0  0  0  0  0
   14.5198   -1.9795   20.5181 H   0  0  0  0  0  0  0  0  0  0  0  0
   14.8158   -3.4016   21.5293 H   0  0  0  0  0  0  0  0  0  0  0  0
   10.5963   -0.8817   25.9810 H   0  0  0  0  0  0  0  0  0  0  0  0
   12.0176   -0.4471   26.9345 H   0  0  0  0  0  0  0  0  0  0  0  0
   10.7999    1.5987   27.8883 H   0  0  0  0  0  0  0  0  0  0  0  0
   10.1023    0.0657   28.2207 H   0  0  0  0  0  0  0  0  0  0  0  0
  1  2  1  0
  2  3  1  0
  3  4  1  0
  4  5  1  0
  4  6  1  0
  6  7  1  0
  7  8  1  0
  8  9  2  0
  8 10  1  0
 10 11  1  0
 11 12  1  0
 12 13  1  0
 13 14  1  0
 14 15  1  0
 15 16  2  0
 15 17  1  0
 17 18  1  0
 18 19  1  0
 17 20  1  0
 20 21  1  0
 13 22  1  0
 22 23  1  0
 23 10  1  0
  1 24  1  0
  1 25  1  0
  1 26  1  0
  2 27  1  0
  2 28  1  0
  3 29  1  0
  3 30  1  0
  5 31  1  0
  5 32  1  0
  5 33  1  0
  6 34  1  0
  6 35  1  0
  7 36  1  0
  7 37  1  0
 11 38  1  0
 11 39  1  0
 12 40  1  0
 12 41  1  0
 13 42  1  0
 14 43  1  0
 17 44  1  0
 18 45  1  0
 18 46  1  0
 19 47  1  0
 19 48  1  0
 19 49  1  0
 20 50  1  0
 20 51  1  0
 21 52  1  0
 21 53  1  0
 21 54  1  0
 22 55  1  0
 22 56  1  0
 23 57  1  0
 23 58  1  0
M  END
>  <Energy>  (751) 
68.281904412956848

>  <compound_id>  (751) 
5724

>  <target_id>  (751) 
1

>  <reference_id>  (751) 
44

>  <inspiration_ids>  (751) 
[44, 27]

>  <energy_score>  (751) 
13.29762364208571

>  <distance_score>  (751) 
7.556439978885994

>  <path>  (751) 
/opt/xchem-fragalysis-2/maxwin/BulkDock/SCRATCH/511018/C5724-P44/C5724-P44.minimised.mol

>  <scratch_subdir>  (751) 
/opt/xchem-fragalysis-2/maxwin/BulkDock/SCRATCH/511018/C5724-P44

>  <fragmenstein_runtime>  (751) 
17.32220721244812

>  <fragmenstein_outcome>  (751) 
too moved

>  <fragmenstein_mode>  (751) 
expansion

>  <fragmenstein_error>  (751) 


$$$$
C5724-P27
     RDKit          3D

 58 58  0  0  0  0  0  0  0  0999 V2000
    2.8037   -1.8353   27.3611 C   0  0  0  0  0  0  0  0  0  0  0  0
    3.3391   -2.9858   26.5004 C   0  0  0  0  0  0  0  0  0  0  0  0
    4.2352   -2.8471   25.1577 C   0  0  0  0  0  0  0  0  0  0  0  0
    4.1441   -2.0223   23.9301 N   0  0  0  0  0  0  0  0  0  0  0  0
    3.9478   -0.8103   24.8729 C   0  0  0  0  0  0  0  0  0  0  0  0
    5.3605   -2.0808   22.4838 C   0  0  0  0  0  0  0  0  0  0  0  0
    6.7469   -2.8830   21.0899 C   0  0  0  0  0  0  0  0  0  0  0  0
    8.6600   -3.8117   20.5986 C   0  0  0  0  0  0  0  0  0  0  0  0
    8.4543   -4.7635   19.9752 O   0  0  0  0  0  0  0  0  0  0  0  0
   10.7008   -3.7000   21.0385 N   0  0  0  0  0  0  0  0  0  0  0  0
   12.0891   -2.9279   20.1398 C   0  0  0  0  0  0  0  0  0  0  0  0
   12.7594   -3.6063   18.7400 C   0  0  0  0  0  0  0  0  0  0  0  0
   14.0956   -4.1078   19.1739 C   0  0  0  0  0  0  0  0  0  0  0  0
   14.8594   -2.8971   19.0184 N   0  0  0  0  0  0  0  0  0  0  0  0
   15.5279   -2.3483   17.8716 C   0  0  0  0  0  0  0  0  0  0  0  0
   15.6915   -2.7965   16.7741 O   0  0  0  0  0  0  0  0  0  0  0  0
   15.9925   -0.9110   18.1446 C   0  0  0  0  0  0  0  0  0  0  0  0
   17.5100   -0.8163   18.1921 C   0  0  0  0  0  0  0  0  0  0  0  0
   18.0505   -1.3873   19.4882 C   0  0  0  0  0  0  0  0  0  0  0  0
   15.4337   -0.0157   17.0015 C   0  0  0  0  0  0  0  0  0  0  0  0
   13.9127   -0.0588   16.8642 C   0  0  0  0  0  0  0  0  0  0  0  0
   13.7367   -4.7384   20.5100 C   0  0  0  0  0  0  0  0  0  0  0  0
   12.0499   -4.8588   20.7356 C   0  0  0  0  0  0  0  0  0  0  0  0
    2.4348   -2.2485   28.3080 H   0  0  0  0  0  0  0  0  0  0  0  0
    3.5882   -1.1206   27.6229 H   0  0  0  0  0  0  0  0  0  0  0  0
    1.9553   -1.3147   26.9180 H   0  0  0  0  0  0  0  0  0  0  0  0
    2.5446   -3.7034   26.3289 H   0  0  0  0  0  0  0  0  0  0  0  0
    3.9843   -3.5352   27.2012 H   0  0  0  0  0  0  0  0  0  0  0  0
    5.1653   -2.4309   25.5423 H   0  0  0  0  0  0  0  0  0  0  0  0
    4.3185   -3.8679   24.8890 H   0  0  0  0  0  0  0  0  0  0  0  0
    4.5977   -0.7358   25.7639 H   0  0  0  0  0  0  0  0  0  0  0  0
    3.9866    0.2017   24.5592 H   0  0  0  0  0  0  0  0  0  0  0  0
    2.9308   -0.8760   25.2278 H   0  0  0  0  0  0  0  0  0  0  0  0
    5.8785   -2.3768   23.3670 H   0  0  0  0  0  0  0  0  0  0  0  0
    4.5039   -2.4801   21.9311 H   0  0  0  0  0  0  0  0  0  0  0  0
    5.8651   -3.2415   20.4565 H   0  0  0  0  0  0  0  0  0  0  0  0
    7.0164   -1.7734   20.7856 H   0  0  0  0  0  0  0  0  0  0  0  0
   12.8270   -2.1104   20.3976 H   0  0  0  0  0  0  0  0  0  0  0  0
   12.6823   -3.1199   21.0679 H   0  0  0  0  0  0  0  0  0  0  0  0
   12.7895   -2.8368   17.9577 H   0  0  0  0  0  0  0  0  0  0  0  0
   12.2445   -4.4528   18.2759 H   0  0  0  0  0  0  0  0  0  0  0  0
   14.4917   -4.8384   18.4652 H   0  0  0  0  0  0  0  0  0  0  0  0
   14.9887   -2.2722   19.8069 H   0  0  0  0  0  0  0  0  0  0  0  0
   15.5675   -0.5319   19.0820 H   0  0  0  0  0  0  0  0  0  0  0  0
   17.8241    0.2320   18.1211 H   0  0  0  0  0  0  0  0  0  0  0  0
   17.9642   -1.3457   17.3460 H   0  0  0  0  0  0  0  0  0  0  0  0
   17.6323   -0.8671   20.3560 H   0  0  0  0  0  0  0  0  0  0  0  0
   17.8227   -2.4535   19.5834 H   0  0  0  0  0  0  0  0  0  0  0  0
   19.1391   -1.2759   19.5235 H   0  0  0  0  0  0  0  0  0  0  0  0
   15.8828   -0.2968   16.0406 H   0  0  0  0  0  0  0  0  0  0  0  0
   15.7312    1.0230   17.1932 H   0  0  0  0  0  0  0  0  0  0  0  0
   13.5608   -1.0379   16.5288 H   0  0  0  0  0  0  0  0  0  0  0  0
   13.4341    0.1790   17.8178 H   0  0  0  0  0  0  0  0  0  0  0  0
   13.5833    0.6798   16.1264 H   0  0  0  0  0  0  0  0  0  0  0  0
   14.2268   -4.2364   21.3565 H   0  0  0  0  0  0  0  0  0  0  0  0
   14.1115   -5.7695   20.5359 H   0  0  0  0  0  0  0  0  0  0  0  0
   11.6555   -5.6869   20.1838 H   0  0  0  0  0  0  0  0  0  0  0  0
   12.2064   -5.1208   21.7915 H   0  0  0  0  0  0  0  0  0  0  0  0
  1  2  1  0
  2  3  1  0
  3  4  1  0
  4  5  1  0
  4  6  1  0
  6  7  1  0
  7  8  1  0
  8  9  2  0
  8 10  1  0
 10 11  1  0
 11 12  1  0
 12 13  1  0
 13 14  1  0
 14 15  1  0
 15 16  2  0
 15 17  1  0
 17 18  1  0
 18 19  1  0
 17 20  1  0
 20 21  1  0
 13 22  1  0
 22 23  1  0
 23 10  1  0
  1 24  1  0
  1 25  1  0
  1 26  1  0
  2 27  1  0
  2 28  1  0
  3 29  1  0
  3 30  1  0
  5 31  1  0
  5 32  1  0
  5 33  1  0
  6 34  1  0
  6 35  1  0
  7 36  1  0
  7 37  1  0
 11 38  1  0
 11 39  1  0
 12 40  1  0
 12 41  1  0
 13 42  1  0
 14 43  1  0
 17 44  1  0
 18 45  1  0
 18 46  1  0
 19 47  1  0
 19 48  1  0
 19 49  1  0
 20 50  1  0
 20 51  1  0
 21 52  1  0
 21 53  1  0
 21 54  1  0
 22 55  1  0
 22 56  1  0
 23 57  1  0
 23 58  1  0
M  END
>  <Energy>  (752) 
957.04702500242217

>  <compound_id>  (752) 
5724

>  <target_id>  (752) 
1

>  <reference_id>  (752) 
27

>  <inspiration_ids>  (752) 
[44, 27]

>  <energy_score>  (752) 
902.0627442315404

>  <distance_score>  (752) 
5.967148842826928

>  <path>  (752) 
/opt/xchem-fragalysis-2/maxwin/BulkDock/SCRATCH/511018/C5724-P27/C5724-P27.minimised.mol

>  <scratch_subdir>  (752) 
/opt/xchem-fragalysis-2/maxwin/BulkDock/SCRATCH/511018/C5724-P27

>  <fragmenstein_runtime>  (752) 
17.823893547058105

>  <fragmenstein_outcome>  (752) 
too moved

>  <fragmenstein_mode>  (752) 
expansion

>  <fragmenstein_error>  (752) 


$$$$
C5734-P44
     RDKit          3D

 54 54  0  0  0  0  0  0  0  0999 V2000
   14.9656   -1.2826   20.7697 C   0  0  0  0  0  0  0  0  0  0  0  0
   14.4400   -1.7553   22.1173 C   0  0  0  0  0  0  0  0  0  0  0  0
   13.5955   -3.0576   22.1423 C   0  0  0  0  0  0  0  0  0  0  0  0
   14.2418   -4.1999   21.3166 C   0  0  0  0  0  0  0  0  0  0  0  0
   13.8251   -4.2500   19.8447 C   0  0  0  0  0  0  0  0  0  0  0  0
   13.3267   -3.4637   23.6455 C   0  0  0  0  0  0  0  0  0  0  0  0
   13.8837   -4.4253   24.0950 O   0  0  0  0  0  0  0  0  0  0  0  0
   12.4531   -2.4966   24.2788 N   0  0  0  0  0  0  0  0  0  0  0  0
   11.9045   -2.4440   25.6279 C   0  0  0  0  0  0  0  0  0  0  0  0
   10.5315   -3.0626   25.7672 C   0  0  0  0  0  0  0  0  0  0  0  0
    9.9320   -2.7731   27.1755 C   0  0  0  0  0  0  0  0  0  0  0  0
    9.4913   -1.3558   27.6044 N   0  0  0  0  0  0  0  0  0  0  0  0
    8.3902   -0.9039   26.7822 C   0  0  0  0  0  0  0  0  0  0  0  0
    8.3897   -0.2829   25.7491 O   0  0  0  0  0  0  0  0  0  0  0  0
    6.9920   -1.2385   27.4887 C   0  0  0  0  0  0  0  0  0  0  0  0
    6.1721   -2.1463   26.5952 C   0  0  0  0  0  0  0  0  0  0  0  0
    6.1667    0.4142   27.9127 S   0  0  0  0  0  0  0  0  0  0  0  0
    4.3326    0.1912   28.0887 C   0  0  0  0  0  0  0  0  0  0  0  0
    3.8766   -0.9051   29.0389 C   0  0  0  0  0  0  0  0  0  0  0  0
    3.6041    0.1570   26.7521 C   0  0  0  0  0  0  0  0  0  0  0  0
   10.9827   -1.0966   27.4924 C   0  0  0  0  0  0  0  0  0  0  0  0
   11.7050   -1.0314   26.1276 C   0  0  0  0  0  0  0  0  0  0  0  0
   14.1611   -1.1748   20.0489 H   0  0  0  0  0  0  0  0  0  0  0  0
   15.4503   -0.3070   20.8799 H   0  0  0  0  0  0  0  0  0  0  0  0
   15.7124   -1.9724   20.3661 H   0  0  0  0  0  0  0  0  0  0  0  0
   13.8573   -0.9361   22.5541 H   0  0  0  0  0  0  0  0  0  0  0  0
   15.3010   -1.8854   22.7865 H   0  0  0  0  0  0  0  0  0  0  0  0
   12.6129   -2.8922   21.7028 H   0  0  0  0  0  0  0  0  0  0  0  0
   15.3344   -4.1367   21.3858 H   0  0  0  0  0  0  0  0  0  0  0  0
   13.9712   -5.1710   21.7494 H   0  0  0  0  0  0  0  0  0  0  0  0
   13.9538   -3.2985   19.3288 H   0  0  0  0  0  0  0  0  0  0  0  0
   14.4254   -4.9996   19.3189 H   0  0  0  0  0  0  0  0  0  0  0  0
   12.7823   -4.5560   19.7593 H   0  0  0  0  0  0  0  0  0  0  0  0
   12.0923   -1.8545   23.5659 H   0  0  0  0  0  0  0  0  0  0  0  0
   12.6078   -2.9809   26.2762 H   0  0  0  0  0  0  0  0  0  0  0  0
   10.5739   -4.1427   25.5884 H   0  0  0  0  0  0  0  0  0  0  0  0
    9.8777   -2.6271   25.0215 H   0  0  0  0  0  0  0  0  0  0  0  0
    8.9861   -3.3356   27.1834 H   0  0  0  0  0  0  0  0  0  0  0  0
   10.5026   -3.2726   27.9771 H   0  0  0  0  0  0  0  0  0  0  0  0
    7.1862   -1.7363   28.4448 H   0  0  0  0  0  0  0  0  0  0  0  0
    5.9352   -1.6757   25.6393 H   0  0  0  0  0  0  0  0  0  0  0  0
    6.7295   -3.0633   26.3876 H   0  0  0  0  0  0  0  0  0  0  0  0
    5.2403   -2.4653   27.0604 H   0  0  0  0  0  0  0  0  0  0  0  0
    4.0280    1.1339   28.5619 H   0  0  0  0  0  0  0  0  0  0  0  0
    4.3742   -0.8129   30.0104 H   0  0  0  0  0  0  0  0  0  0  0  0
    4.0660   -1.9089   28.6569 H   0  0  0  0  0  0  0  0  0  0  0  0
    2.7980   -0.8285   29.2179 H   0  0  0  0  0  0  0  0  0  0  0  0
    3.8689    1.0195   26.1309 H   0  0  0  0  0  0  0  0  0  0  0  0
    2.5203    0.1881   26.9087 H   0  0  0  0  0  0  0  0  0  0  0  0
    3.8279   -0.7498   26.1876 H   0  0  0  0  0  0  0  0  0  0  0  0
   11.0238   -0.0530   27.8422 H   0  0  0  0  0  0  0  0  0  0  0  0
   11.5658   -1.6180   28.2703 H   0  0  0  0  0  0  0  0  0  0  0  0
   12.6772   -0.5379   26.2446 H   0  0  0  0  0  0  0  0  0  0  0  0
   11.1259   -0.4295   25.4167 H   0  0  0  0  0  0  0  0  0  0  0  0
  1  2  1  0
  2  3  1  0
  3  4  1  0
  4  5  1  0
  3  6  1  0
  6  7  2  0
  6  8  1  0
  8  9  1  0
  9 10  1  0
 10 11  1  0
 11 12  1  0
 12 13  1  0
 13 14  2  0
 13 15  1  0
 15 16  1  0
 15 17  1  0
 17 18  1  0
 18 19  1  0
 18 20  1  0
 12 21  1  0
 21 22  1  0
 22  9  1  0
  1 23  1  0
  1 24  1  0
  1 25  1  0
  2 26  1  0
  2 27  1  0
  3 28  1  0
  4 29  1  0
  4 30  1  0
  5 31  1  0
  5 32  1  0
  5 33  1  0
  8 34  1  0
  9 35  1  0
 10 36  1  0
 10 37  1  0
 11 38  1  0
 11 39  1  0
 15 40  1  0
 16 41  1  0
 16 42  1  0
 16 43  1  0
 18 44  1  0
 19 45  1  0
 19 46  1  0
 19 47  1  0
 20 48  1  0
 20 49  1  0
 20 50  1  0
 21 51  1  0
 21 52  1  0
 22 53  1  0
 22 54  1  0
M  END
>  <Energy>  (753) 
100.52297539397981

>  <compound_id>  (753) 
5734

>  <target_id>  (753) 
1

>  <reference_id>  (753) 
44

>  <inspiration_ids>  (753) 
[44, 27]

>  <energy_score>  (753) 
37.36229430986381

>  <distance_score>  (753) 
7.437518996812789

>  <path>  (753) 
/opt/xchem-fragalysis-2/maxwin/BulkDock/SCRATCH/511018/C5734-P44/C5734-P44.minimised.mol

>  <scratch_subdir>  (753) 
/opt/xchem-fragalysis-2/maxwin/BulkDock/SCRATCH/511018/C5734-P44

>  <fragmenstein_runtime>  (753) 
15.23365330696106

>  <fragmenstein_outcome>  (753) 
too moved

>  <fragmenstein_mode>  (753) 
expansion

>  <fragmenstein_error>  (753) 


$$$$
C5734-P27
     RDKit          3D

 54 54  0  0  0  0  0  0  0  0999 V2000
   14.3671    2.3332   20.1907 C   0  0  0  0  0  0  0  0  0  0  0  0
   15.0975    1.1094   20.7289 C   0  0  0  0  0  0  0  0  0  0  0  0
   14.1946    0.1901   21.5914 C   0  0  0  0  0  0  0  0  0  0  0  0
   14.7819   -1.2386   21.6047 C   0  0  0  0  0  0  0  0  0  0  0  0
   14.5843   -2.0304   20.3087 C   0  0  0  0  0  0  0  0  0  0  0  0
   13.9818    0.7423   23.0533 C   0  0  0  0  0  0  0  0  0  0  0  0
   14.7682    1.5405   23.4792 O   0  0  0  0  0  0  0  0  0  0  0  0
   12.8189    0.1379   23.6740 N   0  0  0  0  0  0  0  0  0  0  0  0
   12.1904    0.3818   24.9685 C   0  0  0  0  0  0  0  0  0  0  0  0
   10.8173    1.0282   24.9053 C   0  0  0  0  0  0  0  0  0  0  0  0
   10.2042    1.1294   26.3419 C   0  0  0  0  0  0  0  0  0  0  0  0
    9.7439   -0.1461   27.0757 N   0  0  0  0  0  0  0  0  0  0  0  0
    8.8222    0.2039   28.1724 C   0  0  0  0  0  0  0  0  0  0  0  0
    9.0453    0.4501   29.3314 O   0  0  0  0  0  0  0  0  0  0  0  0
    7.3269    0.1188   27.6795 C   0  0  0  0  0  0  0  0  0  0  0  0
    6.9930   -1.3300   27.3476 C   0  0  0  0  0  0  0  0  0  0  0  0
    6.0482    0.7684   28.8928 S   0  0  0  0  0  0  0  0  0  0  0  0
    4.4991    0.7827   27.8590 C   0  0  0  0  0  0  0  0  0  0  0  0
    3.5281   -0.3133   28.2963 C   0  0  0  0  0  0  0  0  0  0  0  0
    3.8218    2.1493   27.9830 C   0  0  0  0  0  0  0  0  0  0  0  0
   11.2363   -0.4151   27.0910 C   0  0  0  0  0  0  0  0  0  0  0  0
   11.9647   -0.8610   25.8023 C   0  0  0  0  0  0  0  0  0  0  0  0
   13.6219    2.0483   19.4440 H   0  0  0  0  0  0  0  0  0  0  0  0
   13.8682    2.8867   20.9917 H   0  0  0  0  0  0  0  0  0  0  0  0
   15.0776    3.0087   19.7032 H   0  0  0  0  0  0  0  0  0  0  0  0
   15.9656    1.4404   21.3113 H   0  0  0  0  0  0  0  0  0  0  0  0
   15.5010    0.5681   19.8668 H   0  0  0  0  0  0  0  0  0  0  0  0
   13.2194    0.1697   21.1160 H   0  0  0  0  0  0  0  0  0  0  0  0
   15.8576   -1.1727   21.8146 H   0  0  0  0  0  0  0  0  0  0  0  0
   14.3594   -1.8227   22.4309 H   0  0  0  0  0  0  0  0  0  0  0  0
   15.2860   -2.8711   20.2835 H   0  0  0  0  0  0  0  0  0  0  0  0
   13.5825   -2.4604   20.2669 H   0  0  0  0  0  0  0  0  0  0  0  0
   14.7488   -1.4286   19.4123 H   0  0  0  0  0  0  0  0  0  0  0  0
   12.4295   -0.5662   23.0398 H   0  0  0  0  0  0  0  0  0  0  0  0
   12.8680    1.0573   25.5069 H   0  0  0  0  0  0  0  0  0  0  0  0
   10.8948    2.0312   24.4695 H   0  0  0  0  0  0  0  0  0  0  0  0
   10.1458    0.4537   24.2633 H   0  0  0  0  0  0  0  0  0  0  0  0
    9.2649    1.6811   26.1843 H   0  0  0  0  0  0  0  0  0  0  0  0
   10.7588    1.8212   26.9998 H   0  0  0  0  0  0  0  0  0  0  0  0
    7.2460    0.7935   26.8345 H   0  0  0  0  0  0  0  0  0  0  0  0
    7.7261   -1.7659   26.6605 H   0  0  0  0  0  0  0  0  0  0  0  0
    6.9967   -1.9569   28.2468 H   0  0  0  0  0  0  0  0  0  0  0  0
    6.0147   -1.4191   26.8677 H   0  0  0  0  0  0  0  0  0  0  0  0
    4.7759    0.6271   26.8121 H   0  0  0  0  0  0  0  0  0  0  0  0
    2.6323   -0.3058   27.6654 H   0  0  0  0  0  0  0  0  0  0  0  0
    3.2055   -0.1768   29.3345 H   0  0  0  0  0  0  0  0  0  0  0  0
    3.9815   -1.3060   28.2084 H   0  0  0  0  0  0  0  0  0  0  0  0
    3.5213    2.3629   29.0149 H   0  0  0  0  0  0  0  0  0  0  0  0
    2.9217    2.1878   27.3594 H   0  0  0  0  0  0  0  0  0  0  0  0
    4.4876    2.9509   27.6446 H   0  0  0  0  0  0  0  0  0  0  0  0
   11.2678   -1.3104   27.7324 H   0  0  0  0  0  0  0  0  0  0  0  0
   11.8103    0.2961   27.7102 H   0  0  0  0  0  0  0  0  0  0  0  0
   12.9261   -1.3229   26.0548 H   0  0  0  0  0  0  0  0  0  0  0  0
   11.3727   -1.6115   25.2661 H   0  0  0  0  0  0  0  0  0  0  0  0
  1  2  1  0
  2  3  1  0
  3  4  1  0
  4  5  1  0
  3  6  1  0
  6  7  2  0
  6  8  1  0
  8  9  1  0
  9 10  1  0
 10 11  1  0
 11 12  1  0
 12 13  1  0
 13 14  2  0
 13 15  1  0
 15 16  1  0
 15 17  1  0
 17 18  1  0
 18 19  1  0
 18 20  1  0
 12 21  1  0
 21 22  1  0
 22  9  1  0
  1 23  1  0
  1 24  1  0
  1 25  1  0
  2 26  1  0
  2 27  1  0
  3 28  1  0
  4 29  1  0
  4 30  1  0
  5 31  1  0
  5 32  1  0
  5 33  1  0
  8 34  1  0
  9 35  1  0
 10 36  1  0
 10 37  1  0
 11 38  1  0
 11 39  1  0
 15 40  1  0
 16 41  1  0
 16 42  1  0
 16 43  1  0
 18 44  1  0
 19 45  1  0
 19 46  1  0
 19 47  1  0
 20 48  1  0
 20 49  1  0
 20 50  1  0
 21 51  1  0
 21 52  1  0
 22 53  1  0
 22 54  1  0
M  END
>  <Energy>  (754) 
94.815848900607349

>  <compound_id>  (754) 
5734

>  <target_id>  (754) 
1

>  <reference_id>  (754) 
27

>  <inspiration_ids>  (754) 
[44, 27]

>  <energy_score>  (754) 
31.6551678164914

>  <distance_score>  (754) 
7.468428255471444

>  <path>  (754) 
/opt/xchem-fragalysis-2/maxwin/BulkDock/SCRATCH/511018/C5734-P27/C5734-P27.minimised.mol

>  <scratch_subdir>  (754) 
/opt/xchem-fragalysis-2/maxwin/BulkDock/SCRATCH/511018/C5734-P27

>  <fragmenstein_runtime>  (754) 
13.240905046463013

>  <fragmenstein_outcome>  (754) 
too moved

>  <fragmenstein_mode>  (754) 
expansion

>  <fragmenstein_error>  (754) 


$$$$
C5735-P44
     RDKit          3D

 54 54  0  0  0  0  0  0  0  0999 V2000
   13.8731   -1.1369   16.0957 C   0  0  0  0  0  0  0  0  0  0  0  0
   13.3490   -2.3632   16.8421 C   0  0  0  0  0  0  0  0  0  0  0  0
   14.4343   -3.2746   17.4355 C   0  0  0  0  0  0  0  0  0  0  0  0
   15.5015   -3.6614   16.4002 C   0  0  0  0  0  0  0  0  0  0  0  0
   14.9244   -4.2476   15.1226 C   0  0  0  0  0  0  0  0  0  0  0  0
   15.1047   -2.6380   18.6890 C   0  0  0  0  0  0  0  0  0  0  0  0
   16.0717   -1.9481   18.5369 O   0  0  0  0  0  0  0  0  0  0  0  0
   14.3949   -3.0110   19.8874 N   0  0  0  0  0  0  0  0  0  0  0  0
   14.6845   -2.7476   21.2861 C   0  0  0  0  0  0  0  0  0  0  0  0
   13.7775   -3.4675   22.2612 C   0  0  0  0  0  0  0  0  0  0  0  0
   14.0566   -2.9431   23.6913 C   0  0  0  0  0  0  0  0  0  0  0  0
   13.5490   -1.5318   24.0276 N   0  0  0  0  0  0  0  0  0  0  0  0
   13.3302   -1.4074   25.4423 C   0  0  0  0  0  0  0  0  0  0  0  0
   14.0759   -1.0401   26.3233 O   0  0  0  0  0  0  0  0  0  0  0  0
   11.8125   -1.7082   25.8891 C   0  0  0  0  0  0  0  0  0  0  0  0
   10.9098   -0.4705   25.6606 C   0  0  0  0  0  0  0  0  0  0  0  0
   11.1885   -2.9479   25.2535 C   0  0  0  0  0  0  0  0  0  0  0  0
   11.9195   -1.9255   27.3430 N   0  0  0  0  0  0  0  0  0  0  0  0
   10.9275   -2.2620   28.3185 C   0  0  0  0  0  0  0  0  0  0  0  0
   11.5642   -2.2611   29.6931 C   0  0  0  0  0  0  0  0  0  0  0  0
    9.7693   -2.5312   28.1942 O   0  0  0  0  0  0  0  0  0  0  0  0
   14.7327   -1.1404   23.1756 C   0  0  0  0  0  0  0  0  0  0  0  0
   14.6237   -1.2804   21.6512 C   0  0  0  0  0  0  0  0  0  0  0  0
   14.4244   -1.4068   15.1920 H   0  0  0  0  0  0  0  0  0  0  0  0
   14.5422   -0.5405   16.7206 H   0  0  0  0  0  0  0  0  0  0  0  0
   13.0380   -0.5078   15.7735 H   0  0  0  0  0  0  0  0  0  0  0  0
   12.6773   -2.0553   17.6427 H   0  0  0  0  0  0  0  0  0  0  0  0
   12.7257   -2.9430   16.1498 H   0  0  0  0  0  0  0  0  0  0  0  0
   13.9469   -4.2061   17.7538 H   0  0  0  0  0  0  0  0  0  0  0  0
   16.1413   -2.8084   16.1439 H   0  0  0  0  0  0  0  0  0  0  0  0
   16.1685   -4.4046   16.8564 H   0  0  0  0  0  0  0  0  0  0  0  0
   15.7282   -4.7258   14.5554 H   0  0  0  0  0  0  0  0  0  0  0  0
   14.4810   -3.4840   14.4792 H   0  0  0  0  0  0  0  0  0  0  0  0
   14.1562   -4.9941   15.3356 H   0  0  0  0  0  0  0  0  0  0  0  0
   13.5676   -3.5437   19.6305 H   0  0  0  0  0  0  0  0  0  0  0  0
   15.7161   -3.0908   21.4396 H   0  0  0  0  0  0  0  0  0  0  0  0
   12.7222   -3.3163   22.0066 H   0  0  0  0  0  0  0  0  0  0  0  0
   13.9625   -4.5473   22.2168 H   0  0  0  0  0  0  0  0  0  0  0  0
   13.4759   -3.6123   24.3357 H   0  0  0  0  0  0  0  0  0  0  0  0
   15.0753   -3.1638   24.0577 H   0  0  0  0  0  0  0  0  0  0  0  0
   11.2811    0.3864   26.2353 H   0  0  0  0  0  0  0  0  0  0  0  0
   10.9060   -0.1676   24.6124 H   0  0  0  0  0  0  0  0  0  0  0  0
    9.8777   -0.6576   25.9755 H   0  0  0  0  0  0  0  0  0  0  0  0
   11.1853   -2.8931   24.1634 H   0  0  0  0  0  0  0  0  0  0  0  0
   11.7223   -3.8584   25.5471 H   0  0  0  0  0  0  0  0  0  0  0  0
   10.1515   -3.0813   25.5790 H   0  0  0  0  0  0  0  0  0  0  0  0
   12.7836   -1.6743   27.8206 H   0  0  0  0  0  0  0  0  0  0  0  0
   10.8248   -2.5651   30.4402 H   0  0  0  0  0  0  0  0  0  0  0  0
   12.3975   -2.9690   29.7216 H   0  0  0  0  0  0  0  0  0  0  0  0
   11.9166   -1.2555   29.9395 H   0  0  0  0  0  0  0  0  0  0  0  0
   15.7173   -1.4139   23.5927 H   0  0  0  0  0  0  0  0  0  0  0  0
   14.7496   -0.0510   23.3416 H   0  0  0  0  0  0  0  0  0  0  0  0
   15.4422   -0.7349   21.1667 H   0  0  0  0  0  0  0  0  0  0  0  0
   13.6953   -0.8220   21.3046 H   0  0  0  0  0  0  0  0  0  0  0  0
  1  2  1  0
  2  3  1  0
  3  4  1  0
  4  5  1  0
  3  6  1  0
  6  7  2  0
  6  8  1  0
  8  9  1  0
  9 10  1  0
 10 11  1  0
 11 12  1  0
 12 13  1  0
 13 14  2  0
 13 15  1  0
 15 16  1  0
 15 17  1  0
 15 18  1  0
 18 19  1  0
 19 20  1  0
 19 21  2  0
 12 22  1  0
 22 23  1  0
 23  9  1  0
  1 24  1  0
  1 25  1  0
  1 26  1  0
  2 27  1  0
  2 28  1  0
  3 29  1  0
  4 30  1  0
  4 31  1  0
  5 32  1  0
  5 33  1  0
  5 34  1  0
  8 35  1  0
  9 36  1  0
 10 37  1  0
 10 38  1  0
 11 39  1  0
 11 40  1  0
 16 41  1  0
 16 42  1  0
 16 43  1  0
 17 44  1  0
 17 45  1  0
 17 46  1  0
 18 47  1  0
 20 48  1  0
 20 49  1  0
 20 50  1  0
 22 51  1  0
 22 52  1  0
 23 53  1  0
 23 54  1  0
M  END
>  <Energy>  (755) 
75.415708105773632

>  <compound_id>  (755) 
5735

>  <target_id>  (755) 
1

>  <reference_id>  (755) 
44

>  <inspiration_ids>  (755) 
[44, 27]

>  <energy_score>  (755) 
23.363393347932288

>  <distance_score>  (755) 
8.720620894941256

>  <path>  (755) 
/opt/xchem-fragalysis-2/maxwin/BulkDock/SCRATCH/511018/C5735-P44/C5735-P44.minimised.mol

>  <scratch_subdir>  (755) 
/opt/xchem-fragalysis-2/maxwin/BulkDock/SCRATCH/511018/C5735-P44

>  <fragmenstein_runtime>  (755) 
27.031327962875366

>  <fragmenstein_outcome>  (755) 
too moved

>  <fragmenstein_mode>  (755) 
expansion

>  <fragmenstein_error>  (755) 


$$$$
C5735-P27
     RDKit          3D

 54 54  0  0  0  0  0  0  0  0999 V2000
   14.1415    2.3609   18.0828 C   0  0  0  0  0  0  0  0  0  0  0  0
   15.5213    1.7410   18.2641 C   0  0  0  0  0  0  0  0  0  0  0  0
   15.5909    0.3895   19.0004 C   0  0  0  0  0  0  0  0  0  0  0  0
   14.5402   -0.6372   18.5428 C   0  0  0  0  0  0  0  0  0  0  0  0
   14.7087   -1.1218   17.1068 C   0  0  0  0  0  0  0  0  0  0  0  0
   15.6905    0.5641   20.5550 C   0  0  0  0  0  0  0  0  0  0  0  0
   16.7634    0.3956   21.0615 O   0  0  0  0  0  0  0  0  0  0  0  0
   14.4243    0.9038   21.1362 N   0  0  0  0  0  0  0  0  0  0  0  0
   14.0597    1.2452   22.5105 C   0  0  0  0  0  0  0  0  0  0  0  0
   12.5655    1.4544   22.6700 C   0  0  0  0  0  0  0  0  0  0  0  0
   12.0301    0.8282   23.9668 C   0  0  0  0  0  0  0  0  0  0  0  0
   12.6797    1.4082   25.1846 N   0  0  0  0  0  0  0  0  0  0  0  0
   11.7282    1.4944   26.2608 C   0  0  0  0  0  0  0  0  0  0  0  0
   11.4554    0.7020   27.1321 O   0  0  0  0  0  0  0  0  0  0  0  0
   10.9588    2.8895   26.3038 C   0  0  0  0  0  0  0  0  0  0  0  0
    9.4781    2.7064   25.8910 C   0  0  0  0  0  0  0  0  0  0  0  0
   11.6196    3.9962   25.4801 C   0  0  0  0  0  0  0  0  0  0  0  0
   10.9894    3.2475   27.7296 N   0  0  0  0  0  0  0  0  0  0  0  0
   10.5177    4.4117   28.4166 C   0  0  0  0  0  0  0  0  0  0  0  0
   10.7078    4.2186   29.9071 C   0  0  0  0  0  0  0  0  0  0  0  0
   10.0478    5.4289   27.9986 O   0  0  0  0  0  0  0  0  0  0  0  0
   13.7252    0.3445   24.8644 C   0  0  0  0  0  0  0  0  0  0  0  0
   14.4750    0.1950   23.5154 C   0  0  0  0  0  0  0  0  0  0  0  0
   14.2362    3.3203   17.5625 H   0  0  0  0  0  0  0  0  0  0  0  0
   13.6572    2.5592   19.0417 H   0  0  0  0  0  0  0  0  0  0  0  0
   13.4843    1.7311   17.4774 H   0  0  0  0  0  0  0  0  0  0  0  0
   15.9607    1.6150   17.2663 H   0  0  0  0  0  0  0  0  0  0  0  0
   16.1588    2.4665   18.7850 H   0  0  0  0  0  0  0  0  0  0  0  0
   16.5680   -0.0433   18.7330 H   0  0  0  0  0  0  0  0  0  0  0  0
   14.5637   -1.5049   19.2130 H   0  0  0  0  0  0  0  0  0  0  0  0
   13.5488   -0.1975   18.6268 H   0  0  0  0  0  0  0  0  0  0  0  0
   14.6162   -0.2986   16.3925 H   0  0  0  0  0  0  0  0  0  0  0  0
   13.9394   -1.8629   16.8673 H   0  0  0  0  0  0  0  0  0  0  0  0
   15.6876   -1.5909   16.9671 H   0  0  0  0  0  0  0  0  0  0  0  0
   13.7183    0.8829   20.4188 H   0  0  0  0  0  0  0  0  0  0  0  0
   14.5873    2.1783   22.7430 H   0  0  0  0  0  0  0  0  0  0  0  0
   11.9997    1.0279   21.8516 H   0  0  0  0  0  0  0  0  0  0  0  0
   12.3521    2.5296   22.6474 H   0  0  0  0  0  0  0  0  0  0  0  0
   10.9828    1.1600   24.0010 H   0  0  0  0  0  0  0  0  0  0  0  0
   11.8846   -0.2653   23.9590 H   0  0  0  0  0  0  0  0  0  0  0  0
    9.3929    2.4519   24.8306 H   0  0  0  0  0  0  0  0  0  0  0  0
    8.8995    3.6206   26.0625 H   0  0  0  0  0  0  0  0  0  0  0  0
    9.0063    1.9007   26.4646 H   0  0  0  0  0  0  0  0  0  0  0  0
   11.5801    3.7786   24.4094 H   0  0  0  0  0  0  0  0  0  0  0  0
   12.6712    4.1267   25.7602 H   0  0  0  0  0  0  0  0  0  0  0  0
   11.1217    4.9607   25.6261 H   0  0  0  0  0  0  0  0  0  0  0  0
   11.2459    2.5389   28.4144 H   0  0  0  0  0  0  0  0  0  0  0  0
   10.0988    3.3792   30.2545 H   0  0  0  0  0  0  0  0  0  0  0  0
   11.7627    4.0355   30.1305 H   0  0  0  0  0  0  0  0  0  0  0  0
   10.3923    5.1220   30.4374 H   0  0  0  0  0  0  0  0  0  0  0  0
   13.3977   -0.6353   25.2553 H   0  0  0  0  0  0  0  0  0  0  0  0
   14.5096    0.6062   25.5920 H   0  0  0  0  0  0  0  0  0  0  0  0
   14.2665   -0.8083   23.1190 H   0  0  0  0  0  0  0  0  0  0  0  0
   15.5590    0.2212   23.6808 H   0  0  0  0  0  0  0  0  0  0  0  0
  1  2  1  0
  2  3  1  0
  3  4  1  0
  4  5  1  0
  3  6  1  0
  6  7  2  0
  6  8  1  0
  8  9  1  0
  9 10  1  0
 10 11  1  0
 11 12  1  0
 12 13  1  0
 13 14  2  0
 13 15  1  0
 15 16  1  0
 15 17  1  0
 15 18  1  0
 18 19  1  0
 19 20  1  0
 19 21  2  0
 12 22  1  0
 22 23  1  0
 23  9  1  0
  1 24  1  0
  1 25  1  0
  1 26  1  0
  2 27  1  0
  2 28  1  0
  3 29  1  0
  4 30  1  0
  4 31  1  0
  5 32  1  0
  5 33  1  0
  5 34  1  0
  8 35  1  0
  9 36  1  0
 10 37  1  0
 10 38  1  0
 11 39  1  0
 11 40  1  0
 16 41  1  0
 16 42  1  0
 16 43  1  0
 17 44  1  0
 17 45  1  0
 17 46  1  0
 18 47  1  0
 20 48  1  0
 20 49  1  0
 20 50  1  0
 22 51  1  0
 22 52  1  0
 23 53  1  0
 23 54  1  0
M  END
>  <Energy>  (756) 
85.82449571774707

>  <compound_id>  (756) 
5735

>  <target_id>  (756) 
1

>  <reference_id>  (756) 
27

>  <inspiration_ids>  (756) 
[44, 27]

>  <energy_score>  (756) 
33.77218095990813

>  <distance_score>  (756) 
9.041704110647354

>  <path>  (756) 
/opt/xchem-fragalysis-2/maxwin/BulkDock/SCRATCH/511018/C5735-P27/C5735-P27.minimised.mol

>  <scratch_subdir>  (756) 
/opt/xchem-fragalysis-2/maxwin/BulkDock/SCRATCH/511018/C5735-P27

>  <fragmenstein_runtime>  (756) 
30.214402437210083

>  <fragmenstein_outcome>  (756) 
too moved

>  <fragmenstein_mode>  (756) 
expansion

>  <fragmenstein_error>  (756) 


$$$$
C5736-P44
     RDKit          3D

 49 50  0  0  0  0  0  0  0  0999 V2000
   15.3239   -0.2151   16.2737 C   0  0  0  0  0  0  0  0  0  0  0  0
   15.3130   -1.2703   17.3766 C   0  0  0  0  0  0  0  0  0  0  0  0
   14.4725   -2.5533   17.1348 C   0  0  0  0  0  0  0  0  0  0  0  0
   13.4098   -2.3070   15.9858 C   0  0  0  0  0  0  0  0  0  0  0  0
   12.5778   -3.4959   15.5141 C   0  0  0  0  0  0  0  0  0  0  0  0
   13.7805   -3.0604   18.4477 C   0  0  0  0  0  0  0  0  0  0  0  0
   12.6431   -3.3095   18.3846 O   0  0  0  0  0  0  0  0  0  0  0  0
   14.7514   -3.0809   19.6665 N   0  0  0  0  0  0  0  0  0  0  0  0
   14.4827   -3.3292   21.1199 C   0  0  0  0  0  0  0  0  0  0  0  0
   14.2780   -2.0133   21.8713 C   0  0  0  0  0  0  0  0  0  0  0  0
   13.6969   -2.1467   23.3207 C   0  0  0  0  0  0  0  0  0  0  0  0
   12.4827   -2.9875   23.4202 N   0  0  0  0  0  0  0  0  0  0  0  0
   11.6249   -2.9354   24.7769 C   0  0  0  0  0  0  0  0  0  0  0  0
   10.6668   -1.5281   25.2725 C   0  0  0  0  0  0  0  0  0  0  0  0
   11.1381   -0.4414   25.1528 O   0  0  0  0  0  0  0  0  0  0  0  0
    9.2003   -1.9864   25.8305 N   0  0  0  0  0  0  0  0  0  0  0  0
    8.0367   -1.1742   26.2412 C   0  0  0  0  0  0  0  0  0  0  0  0
    7.7848    0.2470   26.3285 C   0  0  0  0  0  0  0  0  0  0  0  0
    6.4304    0.4249   26.5656 C   0  0  0  0  0  0  0  0  0  0  0  0
    5.8576   -0.7907   26.7014 O   0  0  0  0  0  0  0  0  0  0  0  0
    6.8400   -1.7673   26.5557 N   0  0  0  0  0  0  0  0  0  0  0  0
   12.8863   -4.3214   22.9189 C   0  0  0  0  0  0  0  0  0  0  0  0
   13.3287   -4.2910   21.4225 C   0  0  0  0  0  0  0  0  0  0  0  0
   14.3254    0.1185   15.9924 H   0  0  0  0  0  0  0  0  0  0  0  0
   15.8134   -0.6098   15.3768 H   0  0  0  0  0  0  0  0  0  0  0  0
   15.9034    0.6556   16.5973 H   0  0  0  0  0  0  0  0  0  0  0  0
   15.0408   -0.7877   18.3182 H   0  0  0  0  0  0  0  0  0  0  0  0
   16.3538   -1.5873   17.5311 H   0  0  0  0  0  0  0  0  0  0  0  0
   15.1384   -3.3606   16.8038 H   0  0  0  0  0  0  0  0  0  0  0  0
   13.9432   -1.9605   15.0932 H   0  0  0  0  0  0  0  0  0  0  0  0
   12.7188   -1.5133   16.2867 H   0  0  0  0  0  0  0  0  0  0  0  0
   13.2189   -4.3605   15.3181 H   0  0  0  0  0  0  0  0  0  0  0  0
   12.0555   -3.2425   14.5853 H   0  0  0  0  0  0  0  0  0  0  0  0
   11.8152   -3.7900   16.2379 H   0  0  0  0  0  0  0  0  0  0  0  0
   15.6564   -2.7292   19.3842 H   0  0  0  0  0  0  0  0  0  0  0  0
   15.4050   -3.7875   21.4987 H   0  0  0  0  0  0  0  0  0  0  0  0
   13.6271   -1.3496   21.2982 H   0  0  0  0  0  0  0  0  0  0  0  0
   15.2369   -1.4821   21.9323 H   0  0  0  0  0  0  0  0  0  0  0  0
   13.4704   -1.1372   23.6823 H   0  0  0  0  0  0  0  0  0  0  0  0
   14.4767   -2.5418   23.9847 H   0  0  0  0  0  0  0  0  0  0  0  0
   12.3099   -3.1391   25.6071 H   0  0  0  0  0  0  0  0  0  0  0  0
   10.9040   -3.7558   24.7093 H   0  0  0  0  0  0  0  0  0  0  0  0
    9.0906   -2.9881   25.7208 H   0  0  0  0  0  0  0  0  0  0  0  0
    8.5121    1.0264   26.1542 H   0  0  0  0  0  0  0  0  0  0  0  0
    5.7784    1.2796   26.6595 H   0  0  0  0  0  0  0  0  0  0  0  0
   12.0423   -5.0066   22.9966 H   0  0  0  0  0  0  0  0  0  0  0  0
   13.6883   -4.7405   23.5395 H   0  0  0  0  0  0  0  0  0  0  0  0
   12.4566   -4.0052   20.8370 H   0  0  0  0  0  0  0  0  0  0  0  0
   13.5971   -5.3043   21.1007 H   0  0  0  0  0  0  0  0  0  0  0  0
  1  2  1  0
  2  3  1  0
  3  4  1  0
  4  5  1  0
  3  6  1  0
  6  7  2  0
  6  8  1  0
  8  9  1  0
  9 10  1  0
 10 11  1  0
 11 12  1  0
 12 13  1  0
 13 14  1  0
 14 15  2  0
 14 16  1  0
 16 17  1  0
 17 18  1  0
 18 19  2  0
 19 20  1  0
 20 21  1  0
 12 22  1  0
 22 23  1  0
 23  9  1  0
 21 17  2  0
  1 24  1  0
  1 25  1  0
  1 26  1  0
  2 27  1  0
  2 28  1  0
  3 29  1  0
  4 30  1  0
  4 31  1  0
  5 32  1  0
  5 33  1  0
  5 34  1  0
  8 35  1  0
  9 36  1  0
 10 37  1  0
 10 38  1  0
 11 39  1  0
 11 40  1  0
 13 41  1  0
 13 42  1  0
 16 43  1  0
 18 44  1  0
 19 45  1  0
 22 46  1  0
 22 47  1  0
 23 48  1  0
 23 49  1  0
M  END
>  <Energy>  (757) 
76.700174816787964

>  <compound_id>  (757) 
5736

>  <target_id>  (757) 
1

>  <reference_id>  (757) 
44

>  <inspiration_ids>  (757) 
[44, 27]

>  <energy_score>  (757) 
16.62429499206533

>  <distance_score>  (757) 
5.585504084665481

>  <path>  (757) 
/opt/xchem-fragalysis-2/maxwin/BulkDock/SCRATCH/511018/C5736-P44/C5736-P44.minimised.mol

>  <scratch_subdir>  (757) 
/opt/xchem-fragalysis-2/maxwin/BulkDock/SCRATCH/511018/C5736-P44

>  <fragmenstein_runtime>  (757) 
6.3209617137908936

>  <fragmenstein_outcome>  (757) 
too moved

>  <fragmenstein_mode>  (757) 
expansion

>  <fragmenstein_error>  (757) 


$$$$
C5736-P27
     RDKit          3D

 49 50  0  0  0  0  0  0  0  0999 V2000
   13.7517   -0.7428   17.2941 C   0  0  0  0  0  0  0  0  0  0  0  0
   13.7143   -2.2671   17.2189 C   0  0  0  0  0  0  0  0  0  0  0  0
   15.0609   -2.9867   17.4012 C   0  0  0  0  0  0  0  0  0  0  0  0
   15.8954   -3.1170   16.1105 C   0  0  0  0  0  0  0  0  0  0  0  0
   15.8435   -1.9727   15.1132 C   0  0  0  0  0  0  0  0  0  0  0  0
   15.8803   -2.4351   18.5984 C   0  0  0  0  0  0  0  0  0  0  0  0
   16.8230   -1.7255   18.3993 O   0  0  0  0  0  0  0  0  0  0  0  0
   15.3132   -2.9227   19.8322 N   0  0  0  0  0  0  0  0  0  0  0  0
   15.6501   -2.6278   21.2256 C   0  0  0  0  0  0  0  0  0  0  0  0
   15.5189   -3.8697   22.1041 C   0  0  0  0  0  0  0  0  0  0  0  0
   14.1837   -3.9078   22.8475 C   0  0  0  0  0  0  0  0  0  0  0  0
   14.0361   -2.7924   23.8011 N   0  0  0  0  0  0  0  0  0  0  0  0
   12.6733   -2.8441   24.4260 C   0  0  0  0  0  0  0  0  0  0  0  0
   12.1924   -1.6827   25.3854 C   0  0  0  0  0  0  0  0  0  0  0  0
   12.8578   -0.7032   25.5797 O   0  0  0  0  0  0  0  0  0  0  0  0
   10.8375   -2.0235   25.8371 N   0  0  0  0  0  0  0  0  0  0  0  0
    9.9068   -1.2866   26.5334 C   0  0  0  0  0  0  0  0  0  0  0  0
    9.9888    0.0433   27.0073 C   0  0  0  0  0  0  0  0  0  0  0  0
    8.7577    0.2998   27.5600 C   0  0  0  0  0  0  0  0  0  0  0  0
    7.9777   -0.8015   27.4448 O   0  0  0  0  0  0  0  0  0  0  0  0
    8.6939   -1.7945   26.7990 N   0  0  0  0  0  0  0  0  0  0  0  0
   14.4310   -1.5034   23.2104 C   0  0  0  0  0  0  0  0  0  0  0  0
   14.7800   -1.4753   21.7131 C   0  0  0  0  0  0  0  0  0  0  0  0
   14.0408   -0.4017   18.2930 H   0  0  0  0  0  0  0  0  0  0  0  0
   12.7571   -0.3408   17.0792 H   0  0  0  0  0  0  0  0  0  0  0  0
   14.4389   -0.2964   16.5755 H   0  0  0  0  0  0  0  0  0  0  0  0
   13.0323   -2.6333   17.9923 H   0  0  0  0  0  0  0  0  0  0  0  0
   13.2580   -2.5731   16.2696 H   0  0  0  0  0  0  0  0  0  0  0  0
   14.8274   -4.0302   17.6656 H   0  0  0  0  0  0  0  0  0  0  0  0
   16.9450   -3.3105   16.3657 H   0  0  0  0  0  0  0  0  0  0  0  0
   15.5607   -4.0200   15.5891 H   0  0  0  0  0  0  0  0  0  0  0  0
   16.2386   -1.0514   15.5501 H   0  0  0  0  0  0  0  0  0  0  0  0
   14.8326   -1.7958   14.7366 H   0  0  0  0  0  0  0  0  0  0  0  0
   16.4696   -2.2132   14.2468 H   0  0  0  0  0  0  0  0  0  0  0  0
   14.4643   -3.4352   19.6260 H   0  0  0  0  0  0  0  0  0  0  0  0
   16.6994   -2.3090   21.2208 H   0  0  0  0  0  0  0  0  0  0  0  0
   16.3280   -3.8680   22.8468 H   0  0  0  0  0  0  0  0  0  0  0  0
   15.6444   -4.7855   21.5138 H   0  0  0  0  0  0  0  0  0  0  0  0
   13.3648   -3.9109   22.1156 H   0  0  0  0  0  0  0  0  0  0  0  0
   14.1249   -4.8536   23.3998 H   0  0  0  0  0  0  0  0  0  0  0  0
   12.6270   -3.7650   25.0221 H   0  0  0  0  0  0  0  0  0  0  0  0
   11.9291   -2.9253   23.6337 H   0  0  0  0  0  0  0  0  0  0  0  0
   10.5560   -2.9045   25.4139 H   0  0  0  0  0  0  0  0  0  0  0  0
   10.8282    0.7186   26.9357 H   0  0  0  0  0  0  0  0  0  0  0  0
    8.3037    1.1500   28.0453 H   0  0  0  0  0  0  0  0  0  0  0  0
   13.6793   -0.7253   23.3700 H   0  0  0  0  0  0  0  0  0  0  0  0
   15.3196   -1.1720   23.7624 H   0  0  0  0  0  0  0  0  0  0  0  0
   13.8584   -1.4623   21.1279 H   0  0  0  0  0  0  0  0  0  0  0  0
   15.2739   -0.5235   21.4771 H   0  0  0  0  0  0  0  0  0  0  0  0
  1  2  1  0
  2  3  1  0
  3  4  1  0
  4  5  1  0
  3  6  1  0
  6  7  2  0
  6  8  1  0
  8  9  1  0
  9 10  1  0
 10 11  1  0
 11 12  1  0
 12 13  1  0
 13 14  1  0
 14 15  2  0
 14 16  1  0
 16 17  1  0
 17 18  1  0
 18 19  2  0
 19 20  1  0
 20 21  1  0
 12 22  1  0
 22 23  1  0
 23  9  1  0
 21 17  2  0
  1 24  1  0
  1 25  1  0
  1 26  1  0
  2 27  1  0
  2 28  1  0
  3 29  1  0
  4 30  1  0
  4 31  1  0
  5 32  1  0
  5 33  1  0
  5 34  1  0
  8 35  1  0
  9 36  1  0
 10 37  1  0
 10 38  1  0
 11 39  1  0
 11 40  1  0
 13 41  1  0
 13 42  1  0
 16 43  1  0
 18 44  1  0
 19 45  1  0
 22 46  1  0
 22 47  1  0
 23 48  1  0
 23 49  1  0
M  END
>  <Energy>  (758) 
15.630011502972295

>  <compound_id>  (758) 
5736

>  <target_id>  (758) 
1

>  <reference_id>  (758) 
27

>  <inspiration_ids>  (758) 
[44, 27]

>  <energy_score>  (758) 
-30.910630940192505

>  <distance_score>  (758) 
6.774663893126093

>  <path>  (758) 
/opt/xchem-fragalysis-2/maxwin/BulkDock/SCRATCH/511018/C5736-P27/C5736-P27.minimised.mol

>  <scratch_subdir>  (758) 
/opt/xchem-fragalysis-2/maxwin/BulkDock/SCRATCH/511018/C5736-P27

>  <fragmenstein_runtime>  (758) 
9.76007342338562

>  <fragmenstein_outcome>  (758) 
too moved

>  <fragmenstein_mode>  (758) 
expansion

>  <fragmenstein_error>  (758) 


$$$$
C5737-P44
     RDKit          3D

 45 46  0  0  0  0  0  0  0  0999 V2000
   14.9463   -1.0698   16.6067 C   0  0  0  0  0  0  0  0  0  0  0  0
   15.0901   -2.5192   17.0568 C   0  0  0  0  0  0  0  0  0  0  0  0
   13.8816   -3.0518   17.8864 C   0  0  0  0  0  0  0  0  0  0  0  0
   12.9790   -3.9208   16.9845 C   0  0  0  0  0  0  0  0  0  0  0  0
   12.2990   -3.1556   15.8526 C   0  0  0  0  0  0  0  0  0  0  0  0
   14.3505   -3.7307   19.2369 C   0  0  0  0  0  0  0  0  0  0  0  0
   15.5181   -3.6967   19.5059 O   0  0  0  0  0  0  0  0  0  0  0  0
   13.2240   -4.2299   19.9927 N   0  0  0  0  0  0  0  0  0  0  0  0
   13.1398   -4.7604   21.3563 C   0  0  0  0  0  0  0  0  0  0  0  0
   14.4158   -5.4835   21.7764 C   0  0  0  0  0  0  0  0  0  0  0  0
   14.2756   -5.9799   23.2070 C   0  0  0  0  0  0  0  0  0  0  0  0
   13.9376   -4.8314   24.1635 C   0  0  0  0  0  0  0  0  0  0  0  0
   12.6712   -4.1447   23.8241 N   0  0  0  0  0  0  0  0  0  0  0  0
   12.4724   -2.9878   24.7736 C   0  0  0  0  0  0  0  0  0  0  0  0
   11.0744   -2.7464   25.3555 C   0  0  0  0  0  0  0  0  0  0  0  0
   10.4802   -1.4742   25.6352 C   0  0  0  0  0  0  0  0  0  0  0  0
    9.3231   -1.7571   26.3128 C   0  0  0  0  0  0  0  0  0  0  0  0
    9.2204   -3.0991   26.4681 O   0  0  0  0  0  0  0  0  0  0  0  0
   10.3202   -3.7238   25.8881 N   0  0  0  0  0  0  0  0  0  0  0  0
   12.7477   -3.6817   22.4108 C   0  0  0  0  0  0  0  0  0  0  0  0
   15.7222   -0.8288   15.8725 H   0  0  0  0  0  0  0  0  0  0  0  0
   13.9752   -0.8720   16.1470 H   0  0  0  0  0  0  0  0  0  0  0  0
   15.0859   -0.3953   17.4553 H   0  0  0  0  0  0  0  0  0  0  0  0
   16.0333   -2.5820   17.6083 H   0  0  0  0  0  0  0  0  0  0  0  0
   15.2384   -3.1457   16.1683 H   0  0  0  0  0  0  0  0  0  0  0  0
   13.2900   -2.1956   18.2145 H   0  0  0  0  0  0  0  0  0  0  0  0
   13.5692   -4.7311   16.5487 H   0  0  0  0  0  0  0  0  0  0  0  0
   12.1915   -4.4011   17.5650 H   0  0  0  0  0  0  0  0  0  0  0  0
   11.5999   -3.8122   15.3246 H   0  0  0  0  0  0  0  0  0  0  0  0
   13.0243   -2.7971   15.1169 H   0  0  0  0  0  0  0  0  0  0  0  0
   11.7359   -2.3001   16.2368 H   0  0  0  0  0  0  0  0  0  0  0  0
   12.3669   -4.0203   19.4885 H   0  0  0  0  0  0  0  0  0  0  0  0
   12.3248   -5.4955   21.3203 H   0  0  0  0  0  0  0  0  0  0  0  0
   14.6234   -6.3229   21.1032 H   0  0  0  0  0  0  0  0  0  0  0  0
   15.2796   -4.8109   21.7252 H   0  0  0  0  0  0  0  0  0  0  0  0
   15.2121   -6.4536   23.5233 H   0  0  0  0  0  0  0  0  0  0  0  0
   13.4946   -6.7488   23.2606 H   0  0  0  0  0  0  0  0  0  0  0  0
   14.7715   -4.1163   24.1736 H   0  0  0  0  0  0  0  0  0  0  0  0
   13.8555   -5.2518   25.1735 H   0  0  0  0  0  0  0  0  0  0  0  0
   13.1031   -3.1426   25.6617 H   0  0  0  0  0  0  0  0  0  0  0  0
   12.8423   -2.0564   24.3261 H   0  0  0  0  0  0  0  0  0  0  0  0
   10.8671   -0.5003   25.3756 H   0  0  0  0  0  0  0  0  0  0  0  0
    8.5203   -1.1731   26.7352 H   0  0  0  0  0  0  0  0  0  0  0  0
   11.7519   -3.3418   22.1355 H   0  0  0  0  0  0  0  0  0  0  0  0
   13.4400   -2.8348   22.3159 H   0  0  0  0  0  0  0  0  0  0  0  0
  1  2  1  0
  2  3  1  0
  3  4  1  0
  4  5  1  0
  3  6  1  0
  6  7  2  0
  6  8  1  0
  8  9  1  0
  9 10  1  0
 10 11  1  0
 11 12  1  0
 12 13  1  0
 13 14  1  0
 14 15  1  0
 15 16  1  0
 16 17  2  0
 17 18  1  0
 18 19  1  0
 13 20  1  0
 20  9  1  0
 19 15  2  0
  1 21  1  0
  1 22  1  0
  1 23  1  0
  2 24  1  0
  2 25  1  0
  3 26  1  0
  4 27  1  0
  4 28  1  0
  5 29  1  0
  5 30  1  0
  5 31  1  0
  8 32  1  0
  9 33  1  0
 10 34  1  0
 10 35  1  0
 11 36  1  0
 11 37  1  0
 12 38  1  0
 12 39  1  0
 14 40  1  0
 14 41  1  0
 16 42  1  0
 17 43  1  0
 20 44  1  0
 20 45  1  0
M  END
>  <Energy>  (759) 
44.272106997076925

>  <compound_id>  (759) 
5737

>  <target_id>  (759) 
1

>  <reference_id>  (759) 
44

>  <inspiration_ids>  (759) 
[44, 27]

>  <energy_score>  (759) 
-13.750335039195647

>  <distance_score>  (759) 
7.390650881924887

>  <path>  (759) 
/opt/xchem-fragalysis-2/maxwin/BulkDock/SCRATCH/511018/C5737-P44/C5737-P44.minimised.mol

>  <scratch_subdir>  (759) 
/opt/xchem-fragalysis-2/maxwin/BulkDock/SCRATCH/511018/C5737-P44

>  <fragmenstein_runtime>  (759) 
12.511151552200317

>  <fragmenstein_outcome>  (759) 
too moved

>  <fragmenstein_mode>  (759) 
expansion

>  <fragmenstein_error>  (759) 


$$$$
C5737-P27
     RDKit          3D

 45 46  0  0  0  0  0  0  0  0999 V2000
   14.9106   -0.9253   18.6471 C   0  0  0  0  0  0  0  0  0  0  0  0
   14.9111   -1.8781   19.8385 C   0  0  0  0  0  0  0  0  0  0  0  0
   14.0652   -3.1648   19.6913 C   0  0  0  0  0  0  0  0  0  0  0  0
   14.3981   -3.9482   18.4041 C   0  0  0  0  0  0  0  0  0  0  0  0
   13.5010   -3.6025   17.2166 C   0  0  0  0  0  0  0  0  0  0  0  0
   14.1578   -4.0448   20.9824 C   0  0  0  0  0  0  0  0  0  0  0  0
   14.6867   -5.1188   20.9351 O   0  0  0  0  0  0  0  0  0  0  0  0
   13.5369   -3.3474   22.0860 N   0  0  0  0  0  0  0  0  0  0  0  0
   13.2734   -3.7691   23.4612 C   0  0  0  0  0  0  0  0  0  0  0  0
   14.5310   -4.3281   24.1319 C   0  0  0  0  0  0  0  0  0  0  0  0
   15.1393   -3.2920   25.0581 C   0  0  0  0  0  0  0  0  0  0  0  0
   14.1433   -2.8587   26.1510 C   0  0  0  0  0  0  0  0  0  0  0  0
   12.7190   -2.7349   25.7434 N   0  0  0  0  0  0  0  0  0  0  0  0
   12.0964   -1.5680   26.4606 C   0  0  0  0  0  0  0  0  0  0  0  0
   10.5751   -1.5179   26.5962 C   0  0  0  0  0  0  0  0  0  0  0  0
    9.6489   -2.5507   26.8895 C   0  0  0  0  0  0  0  0  0  0  0  0
    8.4464   -1.9172   27.0728 C   0  0  0  0  0  0  0  0  0  0  0  0
    8.6242   -0.5837   26.9452 O   0  0  0  0  0  0  0  0  0  0  0  0
    9.9452   -0.3247   26.6170 N   0  0  0  0  0  0  0  0  0  0  0  0
   12.6551   -2.5846   24.2811 C   0  0  0  0  0  0  0  0  0  0  0  0
   15.4645   -0.0156   18.9024 H   0  0  0  0  0  0  0  0  0  0  0  0
   15.4049   -1.3704   17.7790 H   0  0  0  0  0  0  0  0  0  0  0  0
   13.8987   -0.6275   18.3644 H   0  0  0  0  0  0  0  0  0  0  0  0
   14.5720   -1.3110   20.7133 H   0  0  0  0  0  0  0  0  0  0  0  0
   15.9493   -2.1606   20.0566 H   0  0  0  0  0  0  0  0  0  0  0  0
   13.0096   -2.9196   19.6273 H   0  0  0  0  0  0  0  0  0  0  0  0
   14.2768   -5.0179   18.5870 H   0  0  0  0  0  0  0  0  0  0  0  0
   15.4493   -3.8041   18.1285 H   0  0  0  0  0  0  0  0  0  0  0  0
   12.4657   -3.8903   17.4130 H   0  0  0  0  0  0  0  0  0  0  0  0
   13.8343   -4.1584   16.3374 H   0  0  0  0  0  0  0  0  0  0  0  0
   13.5209   -2.5399   16.9694 H   0  0  0  0  0  0  0  0  0  0  0  0
   13.1145   -2.4862   21.7405 H   0  0  0  0  0  0  0  0  0  0  0  0
   12.5423   -4.5821   23.3863 H   0  0  0  0  0  0  0  0  0  0  0  0
   14.2536   -5.2059   24.7301 H   0  0  0  0  0  0  0  0  0  0  0  0
   15.2805   -4.6690   23.4115 H   0  0  0  0  0  0  0  0  0  0  0  0
   15.4535   -2.4170   24.4748 H   0  0  0  0  0  0  0  0  0  0  0  0
   16.0411   -3.6964   25.5320 H   0  0  0  0  0  0  0  0  0  0  0  0
   14.5231   -1.9138   26.5624 H   0  0  0  0  0  0  0  0  0  0  0  0
   14.1786   -3.5877   26.9698 H   0  0  0  0  0  0  0  0  0  0  0  0
   12.4560   -1.5827   27.5000 H   0  0  0  0  0  0  0  0  0  0  0  0
   12.4568   -0.6277   26.0217 H   0  0  0  0  0  0  0  0  0  0  0  0
    9.8453   -3.6096   26.9617 H   0  0  0  0  0  0  0  0  0  0  0  0
    7.4430   -2.2442   27.3020 H   0  0  0  0  0  0  0  0  0  0  0  0
   11.6121   -2.4972   23.9965 H   0  0  0  0  0  0  0  0  0  0  0  0
   13.1415   -1.6437   23.9867 H   0  0  0  0  0  0  0  0  0  0  0  0
  1  2  1  0
  2  3  1  0
  3  4  1  0
  4  5  1  0
  3  6  1  0
  6  7  2  0
  6  8  1  0
  8  9  1  0
  9 10  1  0
 10 11  1  0
 11 12  1  0
 12 13  1  0
 13 14  1  0
 14 15  1  0
 15 16  1  0
 16 17  2  0
 17 18  1  0
 18 19  1  0
 13 20  1  0
 20  9  1  0
 19 15  2  0
  1 21  1  0
  1 22  1  0
  1 23  1  0
  2 24  1  0
  2 25  1  0
  3 26  1  0
  4 27  1  0
  4 28  1  0
  5 29  1  0
  5 30  1  0
  5 31  1  0
  8 32  1  0
  9 33  1  0
 10 34  1  0
 10 35  1  0
 11 36  1  0
 11 37  1  0
 12 38  1  0
 12 39  1  0
 14 40  1  0
 14 41  1  0
 16 42  1  0
 17 43  1  0
 20 44  1  0
 20 45  1  0
M  END
>  <Energy>  (760) 
42.214306338368218

>  <compound_id>  (760) 
5737

>  <target_id>  (760) 
1

>  <reference_id>  (760) 
27

>  <inspiration_ids>  (760) 
[44, 27]

>  <energy_score>  (760) 
-15.808135697902799

>  <distance_score>  (760) 
7.643397512985536

>  <path>  (760) 
/opt/xchem-fragalysis-2/maxwin/BulkDock/SCRATCH/511018/C5737-P27/C5737-P27.minimised.mol

>  <scratch_subdir>  (760) 
/opt/xchem-fragalysis-2/maxwin/BulkDock/SCRATCH/511018/C5737-P27

>  <fragmenstein_runtime>  (760) 
11.330058813095093

>  <fragmenstein_outcome>  (760) 
too moved

>  <fragmenstein_mode>  (760) 
expansion

>  <fragmenstein_error>  (760) 


$$$$
C5738-P44
     RDKit          3D

 45 46  0  0  0  0  0  0  0  0999 V2000
   15.9271   -1.0871   17.4144 C   0  0  0  0  0  0  0  0  0  0  0  0
   16.1207   -2.6023   17.4173 C   0  0  0  0  0  0  0  0  0  0  0  0
   14.8329   -3.4372   17.2530 C   0  0  0  0  0  0  0  0  0  0  0  0
   14.1749   -3.1549   15.8736 C   0  0  0  0  0  0  0  0  0  0  0  0
   12.9697   -4.0373   15.5638 C   0  0  0  0  0  0  0  0  0  0  0  0
   13.8621   -3.1341   18.4046 C   0  0  0  0  0  0  0  0  0  0  0  0
   12.9202   -2.4426   18.1460 O   0  0  0  0  0  0  0  0  0  0  0  0
   14.3104   -3.6816   19.6597 N   0  0  0  0  0  0  0  0  0  0  0  0
   13.7053   -3.6453   20.9944 C   0  0  0  0  0  0  0  0  0  0  0  0
   13.9626   -4.8973   21.8177 C   0  0  0  0  0  0  0  0  0  0  0  0
   13.2121   -4.8357   23.1698 C   0  0  0  0  0  0  0  0  0  0  0  0
   12.7117   -3.4964   23.5689 N   0  0  0  0  0  0  0  0  0  0  0  0
   12.2652   -3.4963   25.0032 C   0  0  0  0  0  0  0  0  0  0  0  0
   11.1151   -2.5597   25.4108 C   0  0  0  0  0  0  0  0  0  0  0  0
   11.0254   -1.1394   25.4016 C   0  0  0  0  0  0  0  0  0  0  0  0
    9.8317   -0.8456   26.0143 C   0  0  0  0  0  0  0  0  0  0  0  0
    9.2254   -1.9976   26.3829 O   0  0  0  0  0  0  0  0  0  0  0  0
   10.0388   -3.0683   26.0471 N   0  0  0  0  0  0  0  0  0  0  0  0
   13.7680   -2.5072   23.3020 C   0  0  0  0  0  0  0  0  0  0  0  0
   14.1621   -2.4259   21.8072 C   0  0  0  0  0  0  0  0  0  0  0  0
   16.9014   -0.5929   17.4911 H   0  0  0  0  0  0  0  0  0  0  0  0
   15.3325   -0.7644   18.2721 H   0  0  0  0  0  0  0  0  0  0  0  0
   15.4519   -0.7321   16.4967 H   0  0  0  0  0  0  0  0  0  0  0  0
   16.8166   -2.8649   16.6107 H   0  0  0  0  0  0  0  0  0  0  0  0
   16.6212   -2.8795   18.3532 H   0  0  0  0  0  0  0  0  0  0  0  0
   15.0965   -4.4997   17.2972 H   0  0  0  0  0  0  0  0  0  0  0  0
   14.9220   -3.3073   15.0849 H   0  0  0  0  0  0  0  0  0  0  0  0
   13.8499   -2.1106   15.8029 H   0  0  0  0  0  0  0  0  0  0  0  0
   13.2538   -5.0917   15.5522 H   0  0  0  0  0  0  0  0  0  0  0  0
   12.5673   -3.7817   14.5786 H   0  0  0  0  0  0  0  0  0  0  0  0
   12.1610   -3.9124   16.2884 H   0  0  0  0  0  0  0  0  0  0  0  0
   15.1018   -4.2916   19.4903 H   0  0  0  0  0  0  0  0  0  0  0  0
   12.6282   -3.5739   20.8301 H   0  0  0  0  0  0  0  0  0  0  0  0
   15.0397   -5.0020   22.0021 H   0  0  0  0  0  0  0  0  0  0  0  0
   13.6518   -5.7915   21.2647 H   0  0  0  0  0  0  0  0  0  0  0  0
   12.3560   -5.5159   23.1119 H   0  0  0  0  0  0  0  0  0  0  0  0
   13.8790   -5.2418   23.9424 H   0  0  0  0  0  0  0  0  0  0  0  0
   11.9184   -4.5109   25.2476 H   0  0  0  0  0  0  0  0  0  0  0  0
   13.1198   -3.3077   25.6663 H   0  0  0  0  0  0  0  0  0  0  0  0
   11.7379   -0.4380   24.9958 H   0  0  0  0  0  0  0  0  0  0  0  0
    9.2996    0.0638   26.2463 H   0  0  0  0  0  0  0  0  0  0  0  0
   13.4612   -1.5085   23.6300 H   0  0  0  0  0  0  0  0  0  0  0  0
   14.6649   -2.7531   23.8873 H   0  0  0  0  0  0  0  0  0  0  0  0
   13.7565   -1.5104   21.3641 H   0  0  0  0  0  0  0  0  0  0  0  0
   15.2537   -2.3245   21.7419 H   0  0  0  0  0  0  0  0  0  0  0  0
  1  2  1  0
  2  3  1  0
  3  4  1  0
  4  5  1  0
  3  6  1  0
  6  7  2  0
  6  8  1  0
  8  9  1  0
  9 10  1  0
 10 11  1  0
 11 12  1  0
 12 13  1  0
 13 14  1  0
 14 15  1  0
 15 16  2  0
 16 17  1  0
 17 18  1  0
 12 19  1  0
 19 20  1  0
 20  9  1  0
 18 14  2  0
  1 21  1  0
  1 22  1  0
  1 23  1  0
  2 24  1  0
  2 25  1  0
  3 26  1  0
  4 27  1  0
  4 28  1  0
  5 29  1  0
  5 30  1  0
  5 31  1  0
  8 32  1  0
  9 33  1  0
 10 34  1  0
 10 35  1  0
 11 36  1  0
 11 37  1  0
 13 38  1  0
 13 39  1  0
 15 40  1  0
 16 41  1  0
 19 42  1  0
 19 43  1  0
 20 44  1  0
 20 45  1  0
M  END
>  <Energy>  (761) 
20.234682433078522

>  <compound_id>  (761) 
5738

>  <target_id>  (761) 
1

>  <reference_id>  (761) 
44

>  <inspiration_ids>  (761) 
[44, 27]

>  <energy_score>  (761) 
-27.554070193926023

>  <distance_score>  (761) 
7.368921713505089

>  <path>  (761) 
/opt/xchem-fragalysis-2/maxwin/BulkDock/SCRATCH/511018/C5738-P44/C5738-P44.minimised.mol

>  <scratch_subdir>  (761) 
/opt/xchem-fragalysis-2/maxwin/BulkDock/SCRATCH/511018/C5738-P44

>  <fragmenstein_runtime>  (761) 
8.01379108428955

>  <fragmenstein_outcome>  (761) 
too moved

>  <fragmenstein_mode>  (761) 
expansion

>  <fragmenstein_error>  (761) 


$$$$
C5738-P27
     RDKit          3D

 45 46  0  0  0  0  0  0  0  0999 V2000
   14.5158   -0.1002   18.3517 C   0  0  0  0  0  0  0  0  0  0  0  0
   15.6847   -1.0717   18.2463 C   0  0  0  0  0  0  0  0  0  0  0  0
   15.4055   -2.5616   18.5567 C   0  0  0  0  0  0  0  0  0  0  0  0
   14.8706   -3.3264   17.3098 C   0  0  0  0  0  0  0  0  0  0  0  0
   13.6033   -2.7886   16.6526 C   0  0  0  0  0  0  0  0  0  0  0  0
   14.5287   -2.8345   19.8143 C   0  0  0  0  0  0  0  0  0  0  0  0
   13.5201   -3.4589   19.6648 O   0  0  0  0  0  0  0  0  0  0  0  0
   15.0627   -2.1809   20.9771 N   0  0  0  0  0  0  0  0  0  0  0  0
   14.5021   -1.9911   22.3040 C   0  0  0  0  0  0  0  0  0  0  0  0
   14.4990   -0.5144   22.6561 C   0  0  0  0  0  0  0  0  0  0  0  0
   13.5956   -0.2316   23.8575 C   0  0  0  0  0  0  0  0  0  0  0  0
   13.5896   -1.2258   24.9362 N   0  0  0  0  0  0  0  0  0  0  0  0
   12.2612   -1.8657   25.1649 C   0  0  0  0  0  0  0  0  0  0  0  0
   11.1439   -0.9712   25.7515 C   0  0  0  0  0  0  0  0  0  0  0  0
   11.0091    0.4429   25.8454 C   0  0  0  0  0  0  0  0  0  0  0  0
    9.7857    0.6533   26.4302 C   0  0  0  0  0  0  0  0  0  0  0  0
    9.2024   -0.5399   26.6848 O   0  0  0  0  0  0  0  0  0  0  0  0
   10.0389   -1.5543   26.2621 N   0  0  0  0  0  0  0  0  0  0  0  0
   14.7143   -2.1819   24.8280 C   0  0  0  0  0  0  0  0  0  0  0  0
   15.0683   -2.8065   23.4520 C   0  0  0  0  0  0  0  0  0  0  0  0
   14.8559    0.9112   18.1041 H   0  0  0  0  0  0  0  0  0  0  0  0
   14.1183   -0.0662   19.3685 H   0  0  0  0  0  0  0  0  0  0  0  0
   13.6998   -0.3420   17.6707 H   0  0  0  0  0  0  0  0  0  0  0  0
   16.4671   -0.7142   18.9279 H   0  0  0  0  0  0  0  0  0  0  0  0
   16.1201   -0.9904   17.2423 H   0  0  0  0  0  0  0  0  0  0  0  0
   16.3755   -3.0282   18.7849 H   0  0  0  0  0  0  0  0  0  0  0  0
   14.6910   -4.3711   17.5925 H   0  0  0  0  0  0  0  0  0  0  0  0
   15.6620   -3.3552   16.5498 H   0  0  0  0  0  0  0  0  0  0  0  0
   13.1973   -3.5313   15.9608 H   0  0  0  0  0  0  0  0  0  0  0  0
   13.8156   -1.8869   16.0714 H   0  0  0  0  0  0  0  0  0  0  0  0
   12.8218   -2.5666   17.3813 H   0  0  0  0  0  0  0  0  0  0  0  0
   15.9000   -1.6775   20.7168 H   0  0  0  0  0  0  0  0  0  0  0  0
   13.4909   -2.3711   22.2076 H   0  0  0  0  0  0  0  0  0  0  0  0
   14.1577    0.0927   21.8088 H   0  0  0  0  0  0  0  0  0  0  0  0
   15.5240   -0.1851   22.8734 H   0  0  0  0  0  0  0  0  0  0  0  0
   12.5829   -0.0227   23.5003 H   0  0  0  0  0  0  0  0  0  0  0  0
   13.9286    0.7184   24.2951 H   0  0  0  0  0  0  0  0  0  0  0  0
   12.3965   -2.6748   25.8956 H   0  0  0  0  0  0  0  0  0  0  0  0
   11.9054   -2.3346   24.2425 H   0  0  0  0  0  0  0  0  0  0  0  0
   11.7159    1.1962   25.5360 H   0  0  0  0  0  0  0  0  0  0  0  0
    9.2231    1.5253   26.7250 H   0  0  0  0  0  0  0  0  0  0  0  0
   15.6050   -1.6267   25.1551 H   0  0  0  0  0  0  0  0  0  0  0  0
   14.6147   -2.9814   25.5729 H   0  0  0  0  0  0  0  0  0  0  0  0
   16.1586   -2.8878   23.3642 H   0  0  0  0  0  0  0  0  0  0  0  0
   14.6743   -3.8291   23.3983 H   0  0  0  0  0  0  0  0  0  0  0  0
  1  2  1  0
  2  3  1  0
  3  4  1  0
  4  5  1  0
  3  6  1  0
  6  7  2  0
  6  8  1  0
  8  9  1  0
  9 10  1  0
 10 11  1  0
 11 12  1  0
 12 13  1  0
 13 14  1  0
 14 15  1  0
 15 16  2  0
 16 17  1  0
 17 18  1  0
 12 19  1  0
 19 20  1  0
 20  9  1  0
 18 14  2  0
  1 21  1  0
  1 22  1  0
  1 23  1  0
  2 24  1  0
  2 25  1  0
  3 26  1  0
  4 27  1  0
  4 28  1  0
  5 29  1  0
  5 30  1  0
  5 31  1  0
  8 32  1  0
  9 33  1  0
 10 34  1  0
 10 35  1  0
 11 36  1  0
 11 37  1  0
 13 38  1  0
 13 39  1  0
 15 40  1  0
 16 41  1  0
 19 42  1  0
 19 43  1  0
 20 44  1  0
 20 45  1  0
M  END
>  <Energy>  (762) 
28.221802767357278

>  <compound_id>  (762) 
5738

>  <target_id>  (762) 
1

>  <reference_id>  (762) 
27

>  <inspiration_ids>  (762) 
[44, 27]

>  <energy_score>  (762) 
-19.56694985964546

>  <distance_score>  (762) 
7.512471036436218

>  <path>  (762) 
/opt/xchem-fragalysis-2/maxwin/BulkDock/SCRATCH/511018/C5738-P27/C5738-P27.minimised.mol

>  <scratch_subdir>  (762) 
/opt/xchem-fragalysis-2/maxwin/BulkDock/SCRATCH/511018/C5738-P27

>  <fragmenstein_runtime>  (762) 
17.761093854904175

>  <fragmenstein_outcome>  (762) 
too moved

>  <fragmenstein_mode>  (762) 
expansion

>  <fragmenstein_error>  (762) 


$$$$
C5739-P44
     RDKit          3D

 50 51  0  0  0  0  0  0  0  0999 V2000
   15.6187   -0.2920   19.7745 C   0  0  0  0  0  0  0  0  0  0  0  0
   14.9510   -0.7570   21.0662 C   0  0  0  0  0  0  0  0  0  0  0  0
   15.0841   -2.2757   21.2980 C   0  0  0  0  0  0  0  0  0  0  0  0
   14.0812   -3.0830   20.4511 C   0  0  0  0  0  0  0  0  0  0  0  0
   14.5824   -4.4620   20.0539 C   0  0  0  0  0  0  0  0  0  0  0  0
   15.0596   -2.6142   22.8218 C   0  0  0  0  0  0  0  0  0  0  0  0
   16.0493   -3.1293   23.2620 O   0  0  0  0  0  0  0  0  0  0  0  0
   13.8325   -2.2225   23.4740 N   0  0  0  0  0  0  0  0  0  0  0  0
   13.4458   -2.2414   24.8958 C   0  0  0  0  0  0  0  0  0  0  0  0
   13.7473   -3.5578   25.5498 C   0  0  0  0  0  0  0  0  0  0  0  0
   12.4639   -4.2545   25.2386 C   0  0  0  0  0  0  0  0  0  0  0  0
   11.3293   -2.9360   25.0181 C   0  0  0  0  0  0  0  0  0  0  0  0
   10.4245   -2.8967   26.1534 N   0  0  0  0  0  0  0  0  0  0  0  0
   10.1069   -1.9992   27.1567 C   0  0  0  0  0  0  0  0  0  0  0  0
   10.6616   -1.9408   28.2465 O   0  0  0  0  0  0  0  0  0  0  0  0
    8.8868   -1.1188   26.8340 C   0  0  0  0  0  0  0  0  0  0  0  0
    7.5848   -1.6969   27.4105 C   0  0  0  0  0  0  0  0  0  0  0  0
    6.3138   -0.9036   27.1684 C   0  0  0  0  0  0  0  0  0  0  0  0
    6.1256    0.4415   26.7552 C   0  0  0  0  0  0  0  0  0  0  0  0
    4.7642    0.6061   26.7006 C   0  0  0  0  0  0  0  0  0  0  0  0
    4.1579   -0.5438   27.0778 O   0  0  0  0  0  0  0  0  0  0  0  0
    5.1215   -1.4901   27.3819 N   0  0  0  0  0  0  0  0  0  0  0  0
   11.6996   -2.0805   25.0898 C   0  0  0  0  0  0  0  0  0  0  0  0
   15.4233    0.7722   19.6102 H   0  0  0  0  0  0  0  0  0  0  0  0
   15.2650   -0.8486   18.9033 H   0  0  0  0  0  0  0  0  0  0  0  0
   16.7037   -0.4268   19.8364 H   0  0  0  0  0  0  0  0  0  0  0  0
   15.4124   -0.2117   21.8991 H   0  0  0  0  0  0  0  0  0  0  0  0
   13.8978   -0.4697   21.0602 H   0  0  0  0  0  0  0  0  0  0  0  0
   16.0958   -2.5509   20.9637 H   0  0  0  0  0  0  0  0  0  0  0  0
   13.8683   -2.5556   19.5166 H   0  0  0  0  0  0  0  0  0  0  0  0
   13.1436   -3.2151   21.0001 H   0  0  0  0  0  0  0  0  0  0  0  0
   15.4938   -4.3906   19.4519 H   0  0  0  0  0  0  0  0  0  0  0  0
   14.8008   -5.0688   20.9383 H   0  0  0  0  0  0  0  0  0  0  0  0
   13.8246   -4.9849   19.4618 H   0  0  0  0  0  0  0  0  0  0  0  0
   13.2406   -1.7363   22.8033 H   0  0  0  0  0  0  0  0  0  0  0  0
   13.9593   -1.4064   25.3859 H   0  0  0  0  0  0  0  0  0  0  0  0
   13.8419   -3.4252   26.6333 H   0  0  0  0  0  0  0  0  0  0  0  0
   14.6278   -4.0915   25.1883 H   0  0  0  0  0  0  0  0  0  0  0  0
   12.5272   -4.7981   24.2869 H   0  0  0  0  0  0  0  0  0  0  0  0
   12.1340   -4.9281   26.0370 H   0  0  0  0  0  0  0  0  0  0  0  0
   10.9281   -2.9768   23.8236 H   0  0  0  0  0  0  0  0  0  0  0  0
   10.6359   -3.8525   24.8218 H   0  0  0  0  0  0  0  0  0  0  0  0
    8.7983   -0.9975   25.7513 H   0  0  0  0  0  0  0  0  0  0  0  0
    9.0845   -0.1209   27.2433 H   0  0  0  0  0  0  0  0  0  0  0  0
    7.4423   -2.7082   27.0072 H   0  0  0  0  0  0  0  0  0  0  0  0
    7.7015   -1.8166   28.4957 H   0  0  0  0  0  0  0  0  0  0  0  0
    6.8748    1.1809   26.5194 H   0  0  0  0  0  0  0  0  0  0  0  0
    4.1059    1.4194   26.4347 H   0  0  0  0  0  0  0  0  0  0  0  0
   11.2613   -1.1425   24.5265 H   0  0  0  0  0  0  0  0  0  0  0  0
   11.9335   -1.3153   25.9458 H   0  0  0  0  0  0  0  0  0  0  0  0
  1  2  1  0
  2  3  1  0
  3  4  1  0
  4  5  1  0
  3  6  1  0
  6  7  2  0
  6  8  1  0
  8  9  1  0
  9 10  1  0
 10 11  1  0
 11 12  1  0
 12 13  1  0
 13 14  1  0
 14 15  2  0
 14 16  1  0
 16 17  1  0
 17 18  1  0
 18 19  1  0
 19 20  2  0
 20 21  1  0
 21 22  1  0
 13 23  1  0
 23  9  1  0
 22 18  2  0
  1 24  1  0
  1 25  1  0
  1 26  1  0
  2 27  1  0
  2 28  1  0
  3 29  1  0
  4 30  1  0
  4 31  1  0
  5 32  1  0
  5 33  1  0
  5 34  1  0
  8 35  1  0
  9 36  1  0
 10 37  1  0
 10 38  1  0
 11 39  1  0
 11 40  1  0
 12 41  1  0
 12 42  1  0
 16 43  1  0
 16 44  1  0
 17 45  1  0
 17 46  1  0
 19 47  1  0
 20 48  1  0
 23 49  1  0
 23 50  1  0
M  END
>  <Energy>  (763) 
563.99973492161848

>  <compound_id>  (763) 
5739

>  <target_id>  (763) 
1

>  <reference_id>  (763) 
44

>  <inspiration_ids>  (763) 
[44, 27]

>  <energy_score>  (763) 
536.1745202005262

>  <distance_score>  (763) 
6.820866074008013

>  <path>  (763) 
/opt/xchem-fragalysis-2/maxwin/BulkDock/SCRATCH/511018/C5739-P44/C5739-P44.minimised.mol

>  <scratch_subdir>  (763) 
/opt/xchem-fragalysis-2/maxwin/BulkDock/SCRATCH/511018/C5739-P44

>  <fragmenstein_runtime>  (763) 
13.23296332359314

>  <fragmenstein_outcome>  (763) 
too moved

>  <fragmenstein_mode>  (763) 
expansion

>  <fragmenstein_error>  (763) 


$$$$
C5739-P27
     RDKit          3D

 50 51  0  0  0  0  0  0  0  0999 V2000
   14.7556    0.1624   18.9491 C   0  0  0  0  0  0  0  0  0  0  0  0
   14.6153   -0.4143   20.3561 C   0  0  0  0  0  0  0  0  0  0  0  0
   14.8548   -1.9407   20.5308 C   0  0  0  0  0  0  0  0  0  0  0  0
   14.2330   -2.7630   19.3584 C   0  0  0  0  0  0  0  0  0  0  0  0
   15.0071   -4.0255   19.0148 C   0  0  0  0  0  0  0  0  0  0  0  0
   14.3615   -2.5174   21.9357 C   0  0  0  0  0  0  0  0  0  0  0  0
   13.8342   -3.5954   21.9464 O   0  0  0  0  0  0  0  0  0  0  0  0
   14.7306   -1.6373   23.0247 N   0  0  0  0  0  0  0  0  0  0  0  0
   14.4914   -1.7397   24.4680 C   0  0  0  0  0  0  0  0  0  0  0  0
   14.7041   -3.1544   24.9828 C   0  0  0  0  0  0  0  0  0  0  0  0
   13.2872   -3.5850   25.3508 C   0  0  0  0  0  0  0  0  0  0  0  0
   12.2257   -2.2721   24.8344 C   0  0  0  0  0  0  0  0  0  0  0  0
   12.0309   -0.5277   25.5490 N   0  0  0  0  0  0  0  0  0  0  0  0
   10.6876   -0.3683   25.8890 C   0  0  0  0  0  0  0  0  0  0  0  0
    9.8382    0.0873   25.1363 O   0  0  0  0  0  0  0  0  0  0  0  0
   10.2879   -0.7695   27.3062 C   0  0  0  0  0  0  0  0  0  0  0  0
    9.3274    0.2449   27.9744 C   0  0  0  0  0  0  0  0  0  0  0  0
    7.8255    0.0951   27.8165 C   0  0  0  0  0  0  0  0  0  0  0  0
    7.0326   -1.0432   27.5296 C   0  0  0  0  0  0  0  0  0  0  0  0
    5.7387   -0.5844   27.5230 C   0  0  0  0  0  0  0  0  0  0  0  0
    5.7295    0.7327   27.8292 O   0  0  0  0  0  0  0  0  0  0  0  0
    7.0316    1.1617   28.0370 N   0  0  0  0  0  0  0  0  0  0  0  0
   12.8024   -1.5165   24.9796 C   0  0  0  0  0  0  0  0  0  0  0  0
   14.7931    1.2560   18.9999 H   0  0  0  0  0  0  0  0  0  0  0  0
   13.9038   -0.0946   18.3138 H   0  0  0  0  0  0  0  0  0  0  0  0
   15.6776   -0.1837   18.4719 H   0  0  0  0  0  0  0  0  0  0  0  0
   15.3552    0.1192   20.9657 H   0  0  0  0  0  0  0  0  0  0  0  0
   13.6418   -0.1337   20.7643 H   0  0  0  0  0  0  0  0  0  0  0  0
   15.9423   -2.0972   20.5145 H   0  0  0  0  0  0  0  0  0  0  0  0
   14.1811   -2.1862   18.4335 H   0  0  0  0  0  0  0  0  0  0  0  0
   13.2101   -3.0604   19.6052 H   0  0  0  0  0  0  0  0  0  0  0  0
   16.0314   -3.7852   18.7127 H   0  0  0  0  0  0  0  0  0  0  0  0
   15.0524   -4.7140   19.8634 H   0  0  0  0  0  0  0  0  0  0  0  0
   14.5233   -4.5456   18.1827 H   0  0  0  0  0  0  0  0  0  0  0  0
   15.0808   -0.7719   22.6440 H   0  0  0  0  0  0  0  0  0  0  0  0
   15.1324   -0.9983   24.9613 H   0  0  0  0  0  0  0  0  0  0  0  0
   15.1718   -3.8352   24.2661 H   0  0  0  0  0  0  0  0  0  0  0  0
   15.3284   -3.1474   25.8831 H   0  0  0  0  0  0  0  0  0  0  0  0
   12.9748   -4.4881   24.8158 H   0  0  0  0  0  0  0  0  0  0  0  0
   13.1600   -3.7304   26.4303 H   0  0  0  0  0  0  0  0  0  0  0  0
   11.8088   -2.4539   23.7575 H   0  0  0  0  0  0  0  0  0  0  0  0
   11.2775   -2.7106   25.3314 H   0  0  0  0  0  0  0  0  0  0  0  0
   11.2050   -0.8212   27.9059 H   0  0  0  0  0  0  0  0  0  0  0  0
    9.8564   -1.7748   27.2733 H   0  0  0  0  0  0  0  0  0  0  0  0
    9.5141    0.1961   29.0563 H   0  0  0  0  0  0  0  0  0  0  0  0
    9.6092    1.2593   27.6616 H   0  0  0  0  0  0  0  0  0  0  0  0
    7.3512   -2.0514   27.3107 H   0  0  0  0  0  0  0  0  0  0  0  0
    4.7793   -1.0370   27.3196 H   0  0  0  0  0  0  0  0  0  0  0  0
   12.9194   -0.6724   24.1585 H   0  0  0  0  0  0  0  0  0  0  0  0
   13.3806   -1.3487   26.0032 H   0  0  0  0  0  0  0  0  0  0  0  0
  1  2  1  0
  2  3  1  0
  3  4  1  0
  4  5  1  0
  3  6  1  0
  6  7  2  0
  6  8  1  0
  8  9  1  0
  9 10  1  0
 10 11  1  0
 11 12  1  0
 12 13  1  0
 13 14  1  0
 14 15  2  0
 14 16  1  0
 16 17  1  0
 17 18  1  0
 18 19  1  0
 19 20  2  0
 20 21  1  0
 21 22  1  0
 13 23  1  0
 23  9  1  0
 22 18  2  0
  1 24  1  0
  1 25  1  0
  1 26  1  0
  2 27  1  0
  2 28  1  0
  3 29  1  0
  4 30  1  0
  4 31  1  0
  5 32  1  0
  5 33  1  0
  5 34  1  0
  8 35  1  0
  9 36  1  0
 10 37  1  0
 10 38  1  0
 11 39  1  0
 11 40  1  0
 12 41  1  0
 12 42  1  0
 16 43  1  0
 16 44  1  0
 17 45  1  0
 17 46  1  0
 19 47  1  0
 20 48  1  0
 23 49  1  0
 23 50  1  0
M  END
>  <Energy>  (764) 
590.0062747235952

>  <compound_id>  (764) 
5739

>  <target_id>  (764) 
1

>  <reference_id>  (764) 
27

>  <inspiration_ids>  (764) 
[44, 27]

>  <energy_score>  (764) 
562.1810600025024

>  <distance_score>  (764) 
6.8521297964143555

>  <path>  (764) 
/opt/xchem-fragalysis-2/maxwin/BulkDock/SCRATCH/511018/C5739-P27/C5739-P27.minimised.mol

>  <scratch_subdir>  (764) 
/opt/xchem-fragalysis-2/maxwin/BulkDock/SCRATCH/511018/C5739-P27

>  <fragmenstein_runtime>  (764) 
10.75772476196289

>  <fragmenstein_outcome>  (764) 
too moved

>  <fragmenstein_mode>  (764) 
expansion

>  <fragmenstein_error>  (764) 


$$$$
C5740-P44
     RDKit          3D

 50 51  0  0  0  0  0  0  0  0999 V2000
   15.7144   -0.6696   19.6222 C   0  0  0  0  0  0  0  0  0  0  0  0
   15.8356   -1.7535   20.6912 C   0  0  0  0  0  0  0  0  0  0  0  0
   14.4807   -2.2965   21.1983 C   0  0  0  0  0  0  0  0  0  0  0  0
   13.9643   -3.5124   20.3836 C   0  0  0  0  0  0  0  0  0  0  0  0
   13.9431   -3.3913   18.8619 C   0  0  0  0  0  0  0  0  0  0  0  0
   14.5787   -2.7234   22.7079 C   0  0  0  0  0  0  0  0  0  0  0  0
   15.6106   -3.1765   23.1146 O   0  0  0  0  0  0  0  0  0  0  0  0
   13.2998   -2.5597   23.3600 N   0  0  0  0  0  0  0  0  0  0  0  0
   12.8907   -2.8036   24.7386 C   0  0  0  0  0  0  0  0  0  0  0  0
   13.0742   -1.5990   25.6458 C   0  0  0  0  0  0  0  0  0  0  0  0
   11.7149   -0.8769   25.7282 C   0  0  0  0  0  0  0  0  0  0  0  0
   10.5666   -1.1737   26.6575 N   0  0  0  0  0  0  0  0  0  0  0  0
    9.1647   -0.8362   26.5577 C   0  0  0  0  0  0  0  0  0  0  0  0
    8.5487   -0.3150   25.6666 O   0  0  0  0  0  0  0  0  0  0  0  0
    8.4074   -1.2236   27.8328 C   0  0  0  0  0  0  0  0  0  0  0  0
    7.4571   -0.1086   28.3106 C   0  0  0  0  0  0  0  0  0  0  0  0
    6.0560   -0.0977   27.7498 C   0  0  0  0  0  0  0  0  0  0  0  0
    5.5589    0.6242   26.6357 C   0  0  0  0  0  0  0  0  0  0  0  0
    4.2152    0.3593   26.6183 C   0  0  0  0  0  0  0  0  0  0  0  0
    3.9046   -0.4553   27.6555 O   0  0  0  0  0  0  0  0  0  0  0  0
    5.0564   -0.7414   28.3767 N   0  0  0  0  0  0  0  0  0  0  0  0
   10.8024   -2.6148   26.1419 C   0  0  0  0  0  0  0  0  0  0  0  0
   11.4111   -3.1464   24.8167 C   0  0  0  0  0  0  0  0  0  0  0  0
   15.1005    0.1631   19.9787 H   0  0  0  0  0  0  0  0  0  0  0  0
   16.7071   -0.2724   19.3854 H   0  0  0  0  0  0  0  0  0  0  0  0
   15.2893   -1.0521   18.6934 H   0  0  0  0  0  0  0  0  0  0  0  0
   16.4623   -2.5727   20.3191 H   0  0  0  0  0  0  0  0  0  0  0  0
   16.3851   -1.3074   21.5301 H   0  0  0  0  0  0  0  0  0  0  0  0
   13.7673   -1.4700   21.1405 H   0  0  0  0  0  0  0  0  0  0  0  0
   12.9534   -3.7581   20.7308 H   0  0  0  0  0  0  0  0  0  0  0  0
   14.5734   -4.3904   20.6378 H   0  0  0  0  0  0  0  0  0  0  0  0
   14.9590   -3.3699   18.4565 H   0  0  0  0  0  0  0  0  0  0  0  0
   13.4410   -4.2633   18.4297 H   0  0  0  0  0  0  0  0  0  0  0  0
   13.4136   -2.5008   18.5215 H   0  0  0  0  0  0  0  0  0  0  0  0
   12.6684   -2.0588   22.7341 H   0  0  0  0  0  0  0  0  0  0  0  0
   13.5125   -3.6260   25.1100 H   0  0  0  0  0  0  0  0  0  0  0  0
   13.3909   -1.9042   26.6504 H   0  0  0  0  0  0  0  0  0  0  0  0
   13.8425   -0.9247   25.2499 H   0  0  0  0  0  0  0  0  0  0  0  0
   11.3020   -0.6389   24.7379 H   0  0  0  0  0  0  0  0  0  0  0  0
   11.9848    0.1298   26.0856 H   0  0  0  0  0  0  0  0  0  0  0  0
    9.1404   -1.4166   28.6256 H   0  0  0  0  0  0  0  0  0  0  0  0
    7.8658   -2.1567   27.6426 H   0  0  0  0  0  0  0  0  0  0  0  0
    7.3678   -0.1950   29.4024 H   0  0  0  0  0  0  0  0  0  0  0  0
    7.9142    0.8725   28.1265 H   0  0  0  0  0  0  0  0  0  0  0  0
    6.1121    1.2442   25.9473 H   0  0  0  0  0  0  0  0  0  0  0  0
    3.3953    0.6483   25.9795 H   0  0  0  0  0  0  0  0  0  0  0  0
   11.3435   -3.0981   26.9732 H   0  0  0  0  0  0  0  0  0  0  0  0
    9.8108   -3.0901   26.1912 H   0  0  0  0  0  0  0  0  0  0  0  0
   11.2937   -4.2360   24.7722 H   0  0  0  0  0  0  0  0  0  0  0  0
   10.8540   -2.7480   23.9737 H   0  0  0  0  0  0  0  0  0  0  0  0
  1  2  1  0
  2  3  1  0
  3  4  1  0
  4  5  1  0
  3  6  1  0
  6  7  2  0
  6  8  1  0
  8  9  1  0
  9 10  1  0
 10 11  1  0
 11 12  1  0
 12 13  1  0
 13 14  2  0
 13 15  1  0
 15 16  1  0
 16 17  1  0
 17 18  1  0
 18 19  2  0
 19 20  1  0
 20 21  1  0
 12 22  1  0
 22 23  1  0
 23  9  1  0
 21 17  2  0
  1 24  1  0
  1 25  1  0
  1 26  1  0
  2 27  1  0
  2 28  1  0
  3 29  1  0
  4 30  1  0
  4 31  1  0
  5 32  1  0
  5 33  1  0
  5 34  1  0
  8 35  1  0
  9 36  1  0
 10 37  1  0
 10 38  1  0
 11 39  1  0
 11 40  1  0
 15 41  1  0
 15 42  1  0
 16 43  1  0
 16 44  1  0
 18 45  1  0
 19 46  1  0
 22 47  1  0
 22 48  1  0
 23 49  1  0
 23 50  1  0
M  END
>  <Energy>  (765) 
61.828790906170241

>  <compound_id>  (765) 
5740

>  <target_id>  (765) 
1

>  <reference_id>  (765) 
44

>  <inspiration_ids>  (765) 
[44, 27]

>  <energy_score>  (765) 
57.16825915532095

>  <distance_score>  (765) 
6.838780792438836

>  <path>  (765) 
/opt/xchem-fragalysis-2/maxwin/BulkDock/SCRATCH/511018/C5740-P44/C5740-P44.minimised.mol

>  <scratch_subdir>  (765) 
/opt/xchem-fragalysis-2/maxwin/BulkDock/SCRATCH/511018/C5740-P44

>  <fragmenstein_runtime>  (765) 
12.058821439743042

>  <fragmenstein_outcome>  (765) 
too moved

>  <fragmenstein_mode>  (765) 
expansion

>  <fragmenstein_error>  (765) 


$$$$
C5740-P27
     RDKit          3D

 50 51  0  0  0  0  0  0  0  0999 V2000
   14.7318   -0.4475   18.5882 C   0  0  0  0  0  0  0  0  0  0  0  0
   14.8776   -1.0345   19.9871 C   0  0  0  0  0  0  0  0  0  0  0  0
   14.4968   -2.5248   20.1833 C   0  0  0  0  0  0  0  0  0  0  0  0
   15.0786   -3.4578   19.1011 C   0  0  0  0  0  0  0  0  0  0  0  0
   14.1434   -3.6566   17.9041 C   0  0  0  0  0  0  0  0  0  0  0  0
   14.9164   -2.9360   21.6405 C   0  0  0  0  0  0  0  0  0  0  0  0
   15.9691   -3.4702   21.8404 O   0  0  0  0  0  0  0  0  0  0  0  0
   13.8911   -2.5027   22.5588 N   0  0  0  0  0  0  0  0  0  0  0  0
   13.8541   -2.4903   24.0128 C   0  0  0  0  0  0  0  0  0  0  0  0
   13.9058   -1.0602   24.5111 C   0  0  0  0  0  0  0  0  0  0  0  0
   13.3637   -0.9882   25.9428 C   0  0  0  0  0  0  0  0  0  0  0  0
   11.8665   -1.0841   26.1275 N   0  0  0  0  0  0  0  0  0  0  0  0
   11.0473   -0.8798   27.3010 C   0  0  0  0  0  0  0  0  0  0  0  0
   11.3599   -0.6702   28.4458 O   0  0  0  0  0  0  0  0  0  0  0  0
    9.5384   -0.8390   26.9272 C   0  0  0  0  0  0  0  0  0  0  0  0
    8.6821   -0.3689   28.1319 C   0  0  0  0  0  0  0  0  0  0  0  0
    7.2201   -0.0692   27.8900 C   0  0  0  0  0  0  0  0  0  0  0  0
    6.5729    1.1968   27.8390 C   0  0  0  0  0  0  0  0  0  0  0  0
    5.2429    0.9041   27.6761 C   0  0  0  0  0  0  0  0  0  0  0  0
    5.0818   -0.4402   27.6498 O   0  0  0  0  0  0  0  0  0  0  0  0
    6.3148   -1.0538   27.8078 N   0  0  0  0  0  0  0  0  0  0  0  0
   12.1626   -2.5787   25.9421 C   0  0  0  0  0  0  0  0  0  0  0  0
   12.5463   -3.0735   24.5271 C   0  0  0  0  0  0  0  0  0  0  0  0
   14.9652    0.6224   18.6116 H   0  0  0  0  0  0  0  0  0  0  0  0
   15.4273   -0.9144   17.8849 H   0  0  0  0  0  0  0  0  0  0  0  0
   13.7170   -0.5532   18.2013 H   0  0  0  0  0  0  0  0  0  0  0  0
   15.9202   -0.8929   20.3020 H   0  0  0  0  0  0  0  0  0  0  0  0
   14.2794   -0.4244   20.6758 H   0  0  0  0  0  0  0  0  0  0  0  0
   13.4117   -2.6435   20.1318 H   0  0  0  0  0  0  0  0  0  0  0  0
   15.2653   -4.4499   19.5309 H   0  0  0  0  0  0  0  0  0  0  0  0
   16.0508   -3.0870   18.7564 H   0  0  0  0  0  0  0  0  0  0  0  0
   14.6206   -4.3079   17.1651 H   0  0  0  0  0  0  0  0  0  0  0  0
   13.2109   -4.1351   18.2186 H   0  0  0  0  0  0  0  0  0  0  0  0
   13.8946   -2.7182   17.4060 H   0  0  0  0  0  0  0  0  0  0  0  0
   13.1643   -2.0091   22.0386 H   0  0  0  0  0  0  0  0  0  0  0  0
   14.7075   -3.0603   24.3965 H   0  0  0  0  0  0  0  0  0  0  0  0
   13.3122   -0.3942   23.8712 H   0  0  0  0  0  0  0  0  0  0  0  0
   14.9375   -0.6905   24.4753 H   0  0  0  0  0  0  0  0  0  0  0  0
   13.9764   -1.5097   26.6982 H   0  0  0  0  0  0  0  0  0  0  0  0
   13.5379    0.0580   26.2425 H   0  0  0  0  0  0  0  0  0  0  0  0
    9.4215   -0.1393   26.0929 H   0  0  0  0  0  0  0  0  0  0  0  0
    9.2167   -1.8326   26.5994 H   0  0  0  0  0  0  0  0  0  0  0  0
    9.1334    0.5413   28.5505 H   0  0  0  0  0  0  0  0  0  0  0  0
    8.7497   -1.1239   28.9271 H   0  0  0  0  0  0  0  0  0  0  0  0
    7.0217    2.1750   27.9152 H   0  0  0  0  0  0  0  0  0  0  0  0
    4.3398    1.4853   27.5747 H   0  0  0  0  0  0  0  0  0  0  0  0
   11.1918   -3.0593   26.1381 H   0  0  0  0  0  0  0  0  0  0  0  0
   12.7771   -3.0175   26.7475 H   0  0  0  0  0  0  0  0  0  0  0  0
   11.7399   -2.7922   23.8521 H   0  0  0  0  0  0  0  0  0  0  0  0
   12.5931   -4.1689   24.5124 H   0  0  0  0  0  0  0  0  0  0  0  0
  1  2  1  0
  2  3  1  0
  3  4  1  0
  4  5  1  0
  3  6  1  0
  6  7  2  0
  6  8  1  0
  8  9  1  0
  9 10  1  0
 10 11  1  0
 11 12  1  0
 12 13  1  0
 13 14  2  0
 13 15  1  0
 15 16  1  0
 16 17  1  0
 17 18  1  0
 18 19  2  0
 19 20  1  0
 20 21  1  0
 12 22  1  0
 22 23  1  0
 23  9  1  0
 21 17  2  0
  1 24  1  0
  1 25  1  0
  1 26  1  0
  2 27  1  0
  2 28  1  0
  3 29  1  0
  4 30  1  0
  4 31  1  0
  5 32  1  0
  5 33  1  0
  5 34  1  0
  8 35  1  0
  9 36  1  0
 10 37  1  0
 10 38  1  0
 11 39  1  0
 11 40  1  0
 15 41  1  0
 15 42  1  0
 16 43  1  0
 16 44  1  0
 18 45  1  0
 19 46  1  0
 22 47  1  0
 22 48  1  0
 23 49  1  0
 23 50  1  0
M  END
>  <Energy>  (766) 
42.706251963116621

>  <compound_id>  (766) 
5740

>  <target_id>  (766) 
1

>  <reference_id>  (766) 
27

>  <inspiration_ids>  (766) 
[44, 27]

>  <energy_score>  (766) 
38.04572021226625

>  <distance_score>  (766) 
6.544991256845031

>  <path>  (766) 
/opt/xchem-fragalysis-2/maxwin/BulkDock/SCRATCH/511018/C5740-P27/C5740-P27.minimised.mol

>  <scratch_subdir>  (766) 
/opt/xchem-fragalysis-2/maxwin/BulkDock/SCRATCH/511018/C5740-P27

>  <fragmenstein_runtime>  (766) 
11.749100685119629

>  <fragmenstein_outcome>  (766) 
too moved

>  <fragmenstein_mode>  (766) 
expansion

>  <fragmenstein_error>  (766) 


$$$$
C5741-P44
     RDKit          3D

 47 48  0  0  0  0  0  0  0  0999 V2000
   15.6924   -0.9532   18.0982 C   0  0  0  0  0  0  0  0  0  0  0  0
   16.0996   -2.2187   18.8405 C   0  0  0  0  0  0  0  0  0  0  0  0
   15.0968   -2.9464   19.7679 C   0  0  0  0  0  0  0  0  0  0  0  0
   13.9800   -3.7670   19.0773 C   0  0  0  0  0  0  0  0  0  0  0  0
   13.4213   -3.2806   17.7483 C   0  0  0  0  0  0  0  0  0  0  0  0
   14.5669   -2.0855   20.9626 C   0  0  0  0  0  0  0  0  0  0  0  0
   14.3549   -0.9184   20.7951 O   0  0  0  0  0  0  0  0  0  0  0  0
   14.4442   -2.9089   22.1530 N   0  0  0  0  0  0  0  0  0  0  0  0
   13.9307   -2.5928   23.4993 C   0  0  0  0  0  0  0  0  0  0  0  0
   13.9316   -1.1033   23.8312 C   0  0  0  0  0  0  0  0  0  0  0  0
   13.4022   -0.8339   25.2396 C   0  0  0  0  0  0  0  0  0  0  0  0
   12.1308   -1.4658   25.5576 N   0  0  0  0  0  0  0  0  0  0  0  0
   11.2141   -0.8135   26.3952 C   0  0  0  0  0  0  0  0  0  0  0  0
   11.2557   -0.9923   27.6139 O   0  0  0  0  0  0  0  0  0  0  0  0
   10.2617    0.1913   25.7539 C   0  0  0  0  0  0  0  0  0  0  0  0
    8.8705    0.2795   26.3498 C   0  0  0  0  0  0  0  0  0  0  0  0
    8.2761    1.3762   27.0391 C   0  0  0  0  0  0  0  0  0  0  0  0
    6.9686    1.0089   27.2300 C   0  0  0  0  0  0  0  0  0  0  0  0
    6.7697   -0.2219   26.7024 O   0  0  0  0  0  0  0  0  0  0  0  0
    7.9555   -0.6825   26.1506 N   0  0  0  0  0  0  0  0  0  0  0  0
   11.8171   -2.7765   25.0058 C   0  0  0  0  0  0  0  0  0  0  0  0
   12.5680   -3.2429   23.7443 C   0  0  0  0  0  0  0  0  0  0  0  0
   14.8631   -1.1116   17.4106 H   0  0  0  0  0  0  0  0  0  0  0  0
   16.5377   -0.6065   17.4923 H   0  0  0  0  0  0  0  0  0  0  0  0
   15.4500   -0.1384   18.7832 H   0  0  0  0  0  0  0  0  0  0  0  0
   16.4678   -2.9426   18.1019 H   0  0  0  0  0  0  0  0  0  0  0  0
   16.9725   -1.9522   19.4526 H   0  0  0  0  0  0  0  0  0  0  0  0
   15.7320   -3.7081   20.2491 H   0  0  0  0  0  0  0  0  0  0  0  0
   13.1484   -3.9094   19.7765 H   0  0  0  0  0  0  0  0  0  0  0  0
   14.3804   -4.7735   18.8961 H   0  0  0  0  0  0  0  0  0  0  0  0
   12.6343   -3.9616   17.4067 H   0  0  0  0  0  0  0  0  0  0  0  0
   14.1924   -3.2684   16.9729 H   0  0  0  0  0  0  0  0  0  0  0  0
   12.9803   -2.2885   17.8357 H   0  0  0  0  0  0  0  0  0  0  0  0
   14.6282   -3.8748   21.9079 H   0  0  0  0  0  0  0  0  0  0  0  0
   14.6437   -3.0796   24.1779 H   0  0  0  0  0  0  0  0  0  0  0  0
   13.3389   -0.5336   23.1136 H   0  0  0  0  0  0  0  0  0  0  0  0
   14.9519   -0.7074   23.7522 H   0  0  0  0  0  0  0  0  0  0  0  0
   14.1221   -1.2202   25.9718 H   0  0  0  0  0  0  0  0  0  0  0  0
   13.3230    0.2448   25.4171 H   0  0  0  0  0  0  0  0  0  0  0  0
   10.2054    0.0130   24.6806 H   0  0  0  0  0  0  0  0  0  0  0  0
   10.7445    1.1719   25.8616 H   0  0  0  0  0  0  0  0  0  0  0  0
    8.7405    2.3057   27.3316 H   0  0  0  0  0  0  0  0  0  0  0  0
    6.1078    1.4698   27.6900 H   0  0  0  0  0  0  0  0  0  0  0  0
   12.0576   -3.4819   25.8121 H   0  0  0  0  0  0  0  0  0  0  0  0
   10.7343   -2.8544   24.8633 H   0  0  0  0  0  0  0  0  0  0  0  0
   11.9281   -3.1233   22.8685 H   0  0  0  0  0  0  0  0  0  0  0  0
   12.6973   -4.3327   23.8043 H   0  0  0  0  0  0  0  0  0  0  0  0
  1  2  1  0
  2  3  1  0
  3  4  1  0
  4  5  1  0
  3  6  1  0
  6  7  2  0
  6  8  1  0
  8  9  1  0
  9 10  1  0
 10 11  1  0
 11 12  1  0
 12 13  1  0
 13 14  2  0
 13 15  1  0
 15 16  1  0
 16 17  1  0
 17 18  2  0
 18 19  1  0
 19 20  1  0
 12 21  1  0
 21 22  1  0
 22  9  1  0
 20 16  2  0
  1 23  1  0
  1 24  1  0
  1 25  1  0
  2 26  1  0
  2 27  1  0
  3 28  1  0
  4 29  1  0
  4 30  1  0
  5 31  1  0
  5 32  1  0
  5 33  1  0
  8 34  1  0
  9 35  1  0
 10 36  1  0
 10 37  1  0
 11 38  1  0
 11 39  1  0
 15 40  1  0
 15 41  1  0
 17 42  1  0
 18 43  1  0
 21 44  1  0
 21 45  1  0
 22 46  1  0
 22 47  1  0
M  END
>  <Energy>  (767) 
25.419509529747526

>  <compound_id>  (767) 
5741

>  <target_id>  (767) 
1

>  <reference_id>  (767) 
44

>  <inspiration_ids>  (767) 
[44, 27]

>  <energy_score>  (767) 
4.355260419909413

>  <distance_score>  (767) 
6.853842224909513

>  <path>  (767) 
/opt/xchem-fragalysis-2/maxwin/BulkDock/SCRATCH/511018/C5741-P44/C5741-P44.minimised.mol

>  <scratch_subdir>  (767) 
/opt/xchem-fragalysis-2/maxwin/BulkDock/SCRATCH/511018/C5741-P44

>  <fragmenstein_runtime>  (767) 
9.47113823890686

>  <fragmenstein_outcome>  (767) 
too moved

>  <fragmenstein_mode>  (767) 
expansion

>  <fragmenstein_error>  (767) 


$$$$
C5741-P27
     RDKit          3D

 47 48  0  0  0  0  0  0  0  0999 V2000
   14.6221    0.7919   18.1038 C   0  0  0  0  0  0  0  0  0  0  0  0
   15.0741    0.8728   19.5553 C   0  0  0  0  0  0  0  0  0  0  0  0
   14.6448   -0.3176   20.4429 C   0  0  0  0  0  0  0  0  0  0  0  0
   15.2698   -1.6544   19.9927 C   0  0  0  0  0  0  0  0  0  0  0  0
   14.4168   -2.4806   19.0313 C   0  0  0  0  0  0  0  0  0  0  0  0
   15.0029   -0.0101   21.9339 C   0  0  0  0  0  0  0  0  0  0  0  0
   16.0570    0.5032   22.1803 O   0  0  0  0  0  0  0  0  0  0  0  0
   13.9360   -0.4352   22.8077 N   0  0  0  0  0  0  0  0  0  0  0  0
   13.7650   -0.2893   24.2342 C   0  0  0  0  0  0  0  0  0  0  0  0
   13.3053    1.1131   24.6297 C   0  0  0  0  0  0  0  0  0  0  0  0
   12.0874    0.8281   25.8850 C   0  0  0  0  0  0  0  0  0  0  0  0
   10.2754    0.3902   25.5779 N   0  0  0  0  0  0  0  0  0  0  0  0
    9.5105    1.4822   25.9931 C   0  0  0  0  0  0  0  0  0  0  0  0
    9.1752    2.4162   25.2751 O   0  0  0  0  0  0  0  0  0  0  0  0
    9.0077    1.3680   27.4438 C   0  0  0  0  0  0  0  0  0  0  0  0
    7.5442    1.7213   27.6220 C   0  0  0  0  0  0  0  0  0  0  0  0
    6.9339    3.0051   27.6880 C   0  0  0  0  0  0  0  0  0  0  0  0
    5.5969    2.7507   27.8596 C   0  0  0  0  0  0  0  0  0  0  0  0
    5.3989    1.4121   27.9152 O   0  0  0  0  0  0  0  0  0  0  0  0
    6.6169    0.7628   27.7920 N   0  0  0  0  0  0  0  0  0  0  0  0
   11.6187    0.0812   25.5166 C   0  0  0  0  0  0  0  0  0  0  0  0
   12.6629   -1.1573   24.8357 C   0  0  0  0  0  0  0  0  0  0  0  0
   14.8318    1.7383   17.5946 H   0  0  0  0  0  0  0  0  0  0  0  0
   13.5488    0.5999   18.0288 H   0  0  0  0  0  0  0  0  0  0  0  0
   15.1605    0.0073   17.5649 H   0  0  0  0  0  0  0  0  0  0  0  0
   16.1651    0.9878   19.5799 H   0  0  0  0  0  0  0  0  0  0  0  0
   14.6634    1.7943   19.9886 H   0  0  0  0  0  0  0  0  0  0  0  0
   13.5627   -0.3810   20.3756 H   0  0  0  0  0  0  0  0  0  0  0  0
   15.4735   -2.2815   20.8699 H   0  0  0  0  0  0  0  0  0  0  0  0
   16.2454   -1.4668   19.5277 H   0  0  0  0  0  0  0  0  0  0  0  0
   14.9989   -3.3297   18.6575 H   0  0  0  0  0  0  0  0  0  0  0  0
   14.0744   -1.9054   18.1696 H   0  0  0  0  0  0  0  0  0  0  0  0
   13.5472   -2.8922   19.5517 H   0  0  0  0  0  0  0  0  0  0  0  0
   13.2193   -0.9107   22.2532 H   0  0  0  0  0  0  0  0  0  0  0  0
   14.7310   -0.5123   24.7004 H   0  0  0  0  0  0  0  0  0  0  0  0
   14.1128    1.7009   25.0789 H   0  0  0  0  0  0  0  0  0  0  0  0
   12.8369    1.6810   23.8157 H   0  0  0  0  0  0  0  0  0  0  0  0
   12.5308    0.6440   26.9835 H   0  0  0  0  0  0  0  0  0  0  0  0
   11.9104    1.9525   26.1038 H   0  0  0  0  0  0  0  0  0  0  0  0
    9.6192    2.0435   28.0534 H   0  0  0  0  0  0  0  0  0  0  0  0
    9.1839    0.3500   27.8119 H   0  0  0  0  0  0  0  0  0  0  0  0
    7.4095    3.9700   27.5971 H   0  0  0  0  0  0  0  0  0  0  0  0
    4.7127    3.3622   27.9564 H   0  0  0  0  0  0  0  0  0  0  0  0
   11.2847   -0.8477   26.1698 H   0  0  0  0  0  0  0  0  0  0  0  0
   11.2839    0.0331   24.3765 H   0  0  0  0  0  0  0  0  0  0  0  0
   12.1215   -1.8194   24.1560 H   0  0  0  0  0  0  0  0  0  0  0  0
   13.0699   -1.7512   25.6657 H   0  0  0  0  0  0  0  0  0  0  0  0
  1  2  1  0
  2  3  1  0
  3  4  1  0
  4  5  1  0
  3  6  1  0
  6  7  2  0
  6  8  1  0
  8  9  1  0
  9 10  1  0
 10 11  1  0
 11 12  1  0
 12 13  1  0
 13 14  2  0
 13 15  1  0
 15 16  1  0
 16 17  1  0
 17 18  2  0
 18 19  1  0
 19 20  1  0
 12 21  1  0
 21 22  1  0
 22  9  1  0
 20 16  2  0
  1 23  1  0
  1 24  1  0
  1 25  1  0
  2 26  1  0
  2 27  1  0
  3 28  1  0
  4 29  1  0
  4 30  1  0
  5 31  1  0
  5 32  1  0
  5 33  1  0
  8 34  1  0
  9 35  1  0
 10 36  1  0
 10 37  1  0
 11 38  1  0
 11 39  1  0
 15 40  1  0
 15 41  1  0
 17 42  1  0
 18 43  1  0
 21 44  1  0
 21 45  1  0
 22 46  1  0
 22 47  1  0
M  END
>  <Energy>  (768) 
588.54359743456951

>  <compound_id>  (768) 
5741

>  <target_id>  (768) 
1

>  <reference_id>  (768) 
27

>  <inspiration_ids>  (768) 
[44, 27]

>  <energy_score>  (768) 
567.4793483247311

>  <distance_score>  (768) 
7.169019513478632

>  <path>  (768) 
/opt/xchem-fragalysis-2/maxwin/BulkDock/SCRATCH/511018/C5741-P27/C5741-P27.minimised.mol

>  <scratch_subdir>  (768) 
/opt/xchem-fragalysis-2/maxwin/BulkDock/SCRATCH/511018/C5741-P27

>  <fragmenstein_runtime>  (768) 
10.228383541107178

>  <fragmenstein_outcome>  (768) 
too moved

>  <fragmenstein_mode>  (768) 
expansion

>  <fragmenstein_error>  (768) 


$$$$
C5743-P44
     RDKit          3D

 44 45  0  0  0  0  0  0  0  0999 V2000
   15.9466    0.0372   18.8935 C   0  0  0  0  0  0  0  0  0  0  0  0
   16.1864   -0.5292   20.2885 C   0  0  0  0  0  0  0  0  0  0  0  0
   14.8913   -0.9030   21.0568 C   0  0  0  0  0  0  0  0  0  0  0  0
   14.5240   -2.3939   20.9011 C   0  0  0  0  0  0  0  0  0  0  0  0
   14.4289   -2.9194   19.4680 C   0  0  0  0  0  0  0  0  0  0  0  0
   15.0140   -0.5046   22.5736 C   0  0  0  0  0  0  0  0  0  0  0  0
   16.1059   -0.3684   23.0466 O   0  0  0  0  0  0  0  0  0  0  0  0
   13.7070   -0.2723   23.1407 N   0  0  0  0  0  0  0  0  0  0  0  0
   13.3103    0.2863   24.4201 C   0  0  0  0  0  0  0  0  0  0  0  0
   12.9398   -0.7584   25.4599 C   0  0  0  0  0  0  0  0  0  0  0  0
   12.0592   -0.0080   26.5091 C   0  0  0  0  0  0  0  0  0  0  0  0
   10.5861    0.4089   26.4534 N   0  0  0  0  0  0  0  0  0  0  0  0
    9.3826   -0.3599   26.6691 C   0  0  0  0  0  0  0  0  0  0  0  0
    9.2338   -1.5370   26.8562 O   0  0  0  0  0  0  0  0  0  0  0  0
    8.1519    0.5079   26.7265 C   0  0  0  0  0  0  0  0  0  0  0  0
    8.0227    1.9276   26.7803 C   0  0  0  0  0  0  0  0  0  0  0  0
    6.6717    2.1680   26.8169 C   0  0  0  0  0  0  0  0  0  0  0  0
    6.0071    0.9910   26.7932 O   0  0  0  0  0  0  0  0  0  0  0  0
    6.9175   -0.0452   26.7447 N   0  0  0  0  0  0  0  0  0  0  0  0
   10.8854    0.4960   24.9710 C   0  0  0  0  0  0  0  0  0  0  0  0
   12.0992    1.2120   24.3265 C   0  0  0  0  0  0  0  0  0  0  0  0
   15.3693    0.9628   18.9562 H   0  0  0  0  0  0  0  0  0  0  0  0
   16.9048    0.2781   18.4211 H   0  0  0  0  0  0  0  0  0  0  0  0
   15.4274   -0.6671   18.2416 H   0  0  0  0  0  0  0  0  0  0  0  0
   16.7451    0.2414   20.8335 H   0  0  0  0  0  0  0  0  0  0  0  0
   16.8552   -1.3957   20.2245 H   0  0  0  0  0  0  0  0  0  0  0  0
   14.0834   -0.2915   20.6480 H   0  0  0  0  0  0  0  0  0  0  0  0
   15.2645   -3.0000   21.4396 H   0  0  0  0  0  0  0  0  0  0  0  0
   13.5731   -2.5862   21.4114 H   0  0  0  0  0  0  0  0  0  0  0  0
   13.7832   -2.3036   18.8407 H   0  0  0  0  0  0  0  0  0  0  0  0
   15.4173   -2.9692   19.0017 H   0  0  0  0  0  0  0  0  0  0  0  0
   14.0217   -3.9360   19.4737 H   0  0  0  0  0  0  0  0  0  0  0  0
   12.9972   -0.5760   22.4761 H   0  0  0  0  0  0  0  0  0  0  0  0
   14.1708    0.8661   24.7767 H   0  0  0  0  0  0  0  0  0  0  0  0
   13.8518   -1.1351   25.9384 H   0  0  0  0  0  0  0  0  0  0  0  0
   12.4240   -1.6304   25.0406 H   0  0  0  0  0  0  0  0  0  0  0  0
   12.0557   -0.6837   27.3780 H   0  0  0  0  0  0  0  0  0  0  0  0
   12.5979    0.8813   26.8753 H   0  0  0  0  0  0  0  0  0  0  0  0
    8.8160    2.6589   26.7943 H   0  0  0  0  0  0  0  0  0  0  0  0
    6.0573    3.0546   26.8624 H   0  0  0  0  0  0  0  0  0  0  0  0
   10.7127   -0.4944   24.5377 H   0  0  0  0  0  0  0  0  0  0  0  0
   10.0236    1.0675   24.5936 H   0  0  0  0  0  0  0  0  0  0  0  0
   12.2884    2.1556   24.8533 H   0  0  0  0  0  0  0  0  0  0  0  0
   11.8771    1.4672   23.2836 H   0  0  0  0  0  0  0  0  0  0  0  0
  1  2  1  0
  2  3  1  0
  3  4  1  0
  4  5  1  0
  3  6  1  0
  6  7  2  0
  6  8  1  0
  8  9  1  0
  9 10  1  0
 10 11  1  0
 11 12  1  0
 12 13  1  0
 13 14  2  0
 13 15  1  0
 15 16  1  0
 16 17  2  0
 17 18  1  0
 18 19  1  0
 12 20  1  0
 20 21  1  0
 21  9  1  0
 19 15  2  0
  1 22  1  0
  1 23  1  0
  1 24  1  0
  2 25  1  0
  2 26  1  0
  3 27  1  0
  4 28  1  0
  4 29  1  0
  5 30  1  0
  5 31  1  0
  5 32  1  0
  8 33  1  0
  9 34  1  0
 10 35  1  0
 10 36  1  0
 11 37  1  0
 11 38  1  0
 16 39  1  0
 17 40  1  0
 20 41  1  0
 20 42  1  0
 21 43  1  0
 21 44  1  0
M  END
>  <Energy>  (769) 
101.95325769650007

>  <compound_id>  (769) 
5743

>  <target_id>  (769) 
1

>  <reference_id>  (769) 
44

>  <inspiration_ids>  (769) 
[44, 27]

>  <energy_score>  (769) 
56.16013576937439

>  <distance_score>  (769) 
7.797430098906732

>  <path>  (769) 
/opt/xchem-fragalysis-2/maxwin/BulkDock/SCRATCH/511018/C5743-P44/C5743-P44.minimised.mol

>  <scratch_subdir>  (769) 
/opt/xchem-fragalysis-2/maxwin/BulkDock/SCRATCH/511018/C5743-P44

>  <fragmenstein_runtime>  (769) 
12.081226110458374

>  <fragmenstein_outcome>  (769) 
too moved

>  <fragmenstein_mode>  (769) 
expansion

>  <fragmenstein_error>  (769) 


$$$$
C5743-P27
     RDKit          3D

 44 45  0  0  0  0  0  0  0  0999 V2000
   14.4937    0.0993   19.7926 C   0  0  0  0  0  0  0  0  0  0  0  0
   15.6542   -0.8722   19.8788 C   0  0  0  0  0  0  0  0  0  0  0  0
   15.3691   -2.2978   20.3913 C   0  0  0  0  0  0  0  0  0  0  0  0
   14.1952   -3.0709   19.7629 C   0  0  0  0  0  0  0  0  0  0  0  0
   14.1645   -3.0841   18.2370 C   0  0  0  0  0  0  0  0  0  0  0  0
   15.4463   -2.4045   21.9530 C   0  0  0  0  0  0  0  0  0  0  0  0
   16.4824   -2.8104   22.4017 O   0  0  0  0  0  0  0  0  0  0  0  0
   14.2428   -1.9808   22.6111 N   0  0  0  0  0  0  0  0  0  0  0  0
   13.8662   -1.9999   24.0131 C   0  0  0  0  0  0  0  0  0  0  0  0
   12.8765   -3.1031   24.3024 C   0  0  0  0  0  0  0  0  0  0  0  0
   12.3723   -2.9311   25.7372 C   0  0  0  0  0  0  0  0  0  0  0  0
   11.3884   -1.8390   26.0829 N   0  0  0  0  0  0  0  0  0  0  0  0
   10.7037   -1.5492   27.3185 C   0  0  0  0  0  0  0  0  0  0  0  0
   10.8133   -2.0502   28.4074 O   0  0  0  0  0  0  0  0  0  0  0  0
    9.6121   -0.5300   27.2059 C   0  0  0  0  0  0  0  0  0  0  0  0
    8.4425   -0.4800   28.0372 C   0  0  0  0  0  0  0  0  0  0  0  0
    7.7939    0.6699   27.6845 C   0  0  0  0  0  0  0  0  0  0  0  0
    8.5059    1.2930   26.7163 O   0  0  0  0  0  0  0  0  0  0  0  0
    9.6215    0.5332   26.3811 N   0  0  0  0  0  0  0  0  0  0  0  0
   12.6470   -0.9694   25.9589 C   0  0  0  0  0  0  0  0  0  0  0  0
   13.2268   -0.7259   24.5368 C   0  0  0  0  0  0  0  0  0  0  0  0
   14.8686    1.1037   19.5675 H   0  0  0  0  0  0  0  0  0  0  0  0
   13.8128   -0.1689   18.9851 H   0  0  0  0  0  0  0  0  0  0  0  0
   13.9422    0.1587   20.7329 H   0  0  0  0  0  0  0  0  0  0  0  0
   16.4235   -0.4213   20.5191 H   0  0  0  0  0  0  0  0  0  0  0  0
   16.1035   -0.9434   18.8797 H   0  0  0  0  0  0  0  0  0  0  0  0
   16.2561   -2.8703   20.0698 H   0  0  0  0  0  0  0  0  0  0  0  0
   14.2568   -4.1127   20.1061 H   0  0  0  0  0  0  0  0  0  0  0  0
   13.2445   -2.7145   20.1495 H   0  0  0  0  0  0  0  0  0  0  0  0
   14.0090   -2.0867   17.8202 H   0  0  0  0  0  0  0  0  0  0  0  0
   15.1011   -3.4830   17.8349 H   0  0  0  0  0  0  0  0  0  0  0  0
   13.3481   -3.7232   17.8850 H   0  0  0  0  0  0  0  0  0  0  0  0
   13.5934   -1.6196   21.9151 H   0  0  0  0  0  0  0  0  0  0  0  0
   14.7853   -2.1941   24.5810 H   0  0  0  0  0  0  0  0  0  0  0  0
   13.3573   -4.0817   24.1857 H   0  0  0  0  0  0  0  0  0  0  0  0
   12.0363   -3.0823   23.6061 H   0  0  0  0  0  0  0  0  0  0  0  0
   13.1464   -3.1004   26.5065 H   0  0  0  0  0  0  0  0  0  0  0  0
   11.7452   -3.8221   25.9031 H   0  0  0  0  0  0  0  0  0  0  0  0
    8.1571   -1.1932   28.7962 H   0  0  0  0  0  0  0  0  0  0  0  0
    6.8895    1.1649   28.0037 H   0  0  0  0  0  0  0  0  0  0  0  0
   12.3077    0.0294   26.2741 H   0  0  0  0  0  0  0  0  0  0  0  0
   13.4157   -1.1817   26.7228 H   0  0  0  0  0  0  0  0  0  0  0  0
   12.4236   -0.3735   23.8820 H   0  0  0  0  0  0  0  0  0  0  0  0
   13.9748    0.0749   24.5743 H   0  0  0  0  0  0  0  0  0  0  0  0
  1  2  1  0
  2  3  1  0
  3  4  1  0
  4  5  1  0
  3  6  1  0
  6  7  2  0
  6  8  1  0
  8  9  1  0
  9 10  1  0
 10 11  1  0
 11 12  1  0
 12 13  1  0
 13 14  2  0
 13 15  1  0
 15 16  1  0
 16 17  2  0
 17 18  1  0
 18 19  1  0
 12 20  1  0
 20 21  1  0
 21  9  1  0
 19 15  2  0
  1 22  1  0
  1 23  1  0
  1 24  1  0
  2 25  1  0
  2 26  1  0
  3 27  1  0
  4 28  1  0
  4 29  1  0
  5 30  1  0
  5 31  1  0
  5 32  1  0
  8 33  1  0
  9 34  1  0
 10 35  1  0
 10 36  1  0
 11 37  1  0
 11 38  1  0
 16 39  1  0
 17 40  1  0
 20 41  1  0
 20 42  1  0
 21 43  1  0
 21 44  1  0
M  END
>  <Energy>  (770) 
80.455265036369838

>  <compound_id>  (770) 
5743

>  <target_id>  (770) 
1

>  <reference_id>  (770) 
27

>  <inspiration_ids>  (770) 
[44, 27]

>  <energy_score>  (770) 
34.66214310924562

>  <distance_score>  (770) 
7.6949643215470385

>  <path>  (770) 
/opt/xchem-fragalysis-2/maxwin/BulkDock/SCRATCH/511018/C5743-P27/C5743-P27.minimised.mol

>  <scratch_subdir>  (770) 
/opt/xchem-fragalysis-2/maxwin/BulkDock/SCRATCH/511018/C5743-P27

>  <fragmenstein_runtime>  (770) 
14.17267632484436

>  <fragmenstein_outcome>  (770) 
too moved

>  <fragmenstein_mode>  (770) 
expansion

>  <fragmenstein_error>  (770) 


$$$$
C5744-P44
     RDKit          3D

 53 54  0  0  0  0  0  0  0  0999 V2000
   13.2748   -3.8360   21.9288 C   0  0  0  0  0  0  0  0  0  0  0  0
   12.0627   -4.6777   21.5343 C   0  0  0  0  0  0  0  0  0  0  0  0
   12.0095   -5.4985   20.1991 C   0  0  0  0  0  0  0  0  0  0  0  0
   13.1615   -4.8818   19.2526 C   0  0  0  0  0  0  0  0  0  0  0  0
   14.6062   -5.2454   19.5509 C   0  0  0  0  0  0  0  0  0  0  0  0
   10.5381   -5.3756   19.1090 C   0  0  0  0  0  0  0  0  0  0  0  0
   10.7051   -5.3243   17.8994 O   0  0  0  0  0  0  0  0  0  0  0  0
    9.0493   -5.2119   20.0946 N   0  0  0  0  0  0  0  0  0  0  0  0
    7.1122   -4.7406   19.6217 C   0  0  0  0  0  0  0  0  0  0  0  0
    7.5486   -4.2456   20.8672 C   0  0  0  0  0  0  0  0  0  0  0  0
    6.8955   -3.1683   21.4295 C   0  0  0  0  0  0  0  0  0  0  0  0
    5.2940   -2.9708   20.7784 C   0  0  0  0  0  0  0  0  0  0  0  0
    5.3413   -2.7019   22.0320 N   0  0  0  0  0  0  0  0  0  0  0  0
    3.9374   -2.2652   23.1310 C   0  0  0  0  0  0  0  0  0  0  0  0
    2.7646   -2.2643   22.9242 O   0  0  0  0  0  0  0  0  0  0  0  0
    4.5983   -1.6750   24.7926 C   0  0  0  0  0  0  0  0  0  0  0  0
    4.8875   -0.1621   24.7025 C   0  0  0  0  0  0  0  0  0  0  0  0
    5.7461   -2.4934   25.3717 C   0  0  0  0  0  0  0  0  0  0  0  0
    3.7145   -1.6951   26.1509 C   0  0  0  0  0  0  0  0  0  0  0  0
    3.1768   -0.7343   27.0002 C   0  0  0  0  0  0  0  0  0  0  0  0
    2.5229   -1.4637   28.0072 C   0  0  0  0  0  0  0  0  0  0  0  0
    2.6757   -2.7782   27.8511 N   0  0  0  0  0  0  0  0  0  0  0  0
    3.4288   -2.9306   26.6969 O   0  0  0  0  0  0  0  0  0  0  0  0
    5.4633   -3.5311   20.0824 C   0  0  0  0  0  0  0  0  0  0  0  0
   14.1437   -4.4692   22.1248 H   0  0  0  0  0  0  0  0  0  0  0  0
   13.5220   -3.0589   21.2040 H   0  0  0  0  0  0  0  0  0  0  0  0
   13.0596   -3.3224   22.8737 H   0  0  0  0  0  0  0  0  0  0  0  0
   11.2391   -3.9917   21.6173 H   0  0  0  0  0  0  0  0  0  0  0  0
   11.9492   -5.4031   22.3453 H   0  0  0  0  0  0  0  0  0  0  0  0
   12.1888   -6.5084   20.5390 H   0  0  0  0  0  0  0  0  0  0  0  0
   13.0674   -3.7892   19.2354 H   0  0  0  0  0  0  0  0  0  0  0  0
   13.0152   -5.1309   18.2026 H   0  0  0  0  0  0  0  0  0  0  0  0
   15.0805   -4.5490   20.2439 H   0  0  0  0  0  0  0  0  0  0  0  0
   15.2048   -5.1817   18.6356 H   0  0  0  0  0  0  0  0  0  0  0  0
   14.7097   -6.2544   19.9540 H   0  0  0  0  0  0  0  0  0  0  0  0
    9.2808   -5.2196   21.0303 H   0  0  0  0  0  0  0  0  0  0  0  0
    6.7650   -5.7517   19.4741 H   0  0  0  0  0  0  0  0  0  0  0  0
    8.4145   -3.7236   20.6655 H   0  0  0  0  0  0  0  0  0  0  0  0
    7.3909   -4.8338   21.7616 H   0  0  0  0  0  0  0  0  0  0  0  0
    6.7802   -3.4873   22.4964 H   0  0  0  0  0  0  0  0  0  0  0  0
    7.3671   -2.2692   21.1861 H   0  0  0  0  0  0  0  0  0  0  0  0
    4.0447   -3.5154   20.9328 H   0  0  0  0  0  0  0  0  0  0  0  0
    5.4402   -1.8651   20.7483 H   0  0  0  0  0  0  0  0  0  0  0  0
    5.6881    0.1588   25.3786 H   0  0  0  0  0  0  0  0  0  0  0  0
    5.1235    0.1086   23.6898 H   0  0  0  0  0  0  0  0  0  0  0  0
    4.0169    0.4656   24.9197 H   0  0  0  0  0  0  0  0  0  0  0  0
    5.7277   -3.4920   24.9346 H   0  0  0  0  0  0  0  0  0  0  0  0
    6.6974   -1.9718   25.3129 H   0  0  0  0  0  0  0  0  0  0  0  0
    5.7166   -2.6855   26.4547 H   0  0  0  0  0  0  0  0  0  0  0  0
    3.2195    0.3392   26.9035 H   0  0  0  0  0  0  0  0  0  0  0  0
    1.9523   -1.0986   28.8489 H   0  0  0  0  0  0  0  0  0  0  0  0
    4.6335   -4.2983   19.6244 H   0  0  0  0  0  0  0  0  0  0  0  0
    5.1612   -2.8138   19.1080 H   0  0  0  0  0  0  0  0  0  0  0  0
  1  2  1  0
  2  3  1  0
  3  4  1  0
  4  5  1  0
  3  6  1  0
  6  7  2  0
  6  8  1  0
  8  9  1  0
  9 10  1  0
 10 11  1  0
 11 12  1  0
 12 13  1  0
 13 14  1  0
 14 15  2  0
 14 16  1  0
 16 17  1  0
 16 18  1  0
 16 19  1  0
 19 20  2  0
 20 21  1  0
 21 22  2  0
 22 23  1  0
 13 24  1  0
 24  9  1  0
 23 19  1  0
  1 25  1  0
  1 26  1  0
  1 27  1  0
  2 28  1  0
  2 29  1  0
  3 30  1  0
  4 31  1  0
  4 32  1  0
  5 33  1  0
  5 34  1  0
  5 35  1  0
  8 36  1  0
  9 37  1  0
 10 38  1  0
 10 39  1  0
 11 40  1  0
 11 41  1  0
 12 42  1  0
 12 43  1  0
 17 44  1  0
 17 45  1  0
 17 46  1  0
 18 47  1  0
 18 48  1  0
 18 49  1  0
 20 50  1  0
 21 51  1  0
 24 52  1  0
 24 53  1  0
M  END
>  <Energy>  (771) 
1441.4396911753611

>  <compound_id>  (771) 
5744

>  <target_id>  (771) 
1

>  <reference_id>  (771) 
44

>  <inspiration_ids>  (771) 
[44, 27]

>  <energy_score>  (771) 
1363.6798812085556

>  <distance_score>  (771) 
7.687748248369113

>  <path>  (771) 
/opt/xchem-fragalysis-2/maxwin/BulkDock/SCRATCH/511018/C5744-P44/C5744-P44.minimised.mol

>  <scratch_subdir>  (771) 
/opt/xchem-fragalysis-2/maxwin/BulkDock/SCRATCH/511018/C5744-P44

>  <fragmenstein_runtime>  (771) 
16.0761775970459

>  <fragmenstein_outcome>  (771) 
too moved

>  <fragmenstein_mode>  (771) 
expansion

>  <fragmenstein_error>  (771) 


$$$$
C5744-P27
     RDKit          3D

 53 54  0  0  0  0  0  0  0  0999 V2000
   14.7628   -0.0942   19.1521 C   0  0  0  0  0  0  0  0  0  0  0  0
   14.7889   -0.5866   20.5942 C   0  0  0  0  0  0  0  0  0  0  0  0
   14.5006   -2.0869   20.8520 C   0  0  0  0  0  0  0  0  0  0  0  0
   15.2271   -3.0353   19.8711 C   0  0  0  0  0  0  0  0  0  0  0  0
   14.4068   -3.3637   18.6179 C   0  0  0  0  0  0  0  0  0  0  0  0
   14.8314   -2.3905   22.3625 C   0  0  0  0  0  0  0  0  0  0  0  0
   15.9030   -2.8515   22.6380 O   0  0  0  0  0  0  0  0  0  0  0  0
   13.7358   -1.9730   23.2135 N   0  0  0  0  0  0  0  0  0  0  0  0
   13.6306   -1.8936   24.6556 C   0  0  0  0  0  0  0  0  0  0  0  0
   13.8384   -0.5162   25.1971 C   0  0  0  0  0  0  0  0  0  0  0  0
   13.1145   -0.7351   26.5023 C   0  0  0  0  0  0  0  0  0  0  0  0
   11.8032   -1.9310   26.0260 C   0  0  0  0  0  0  0  0  0  0  0  0
   10.8573   -1.0098   26.1787 N   0  0  0  0  0  0  0  0  0  0  0  0
    9.9094   -0.9287   27.5486 C   0  0  0  0  0  0  0  0  0  0  0  0
    9.8053   -1.6266   28.4674 O   0  0  0  0  0  0  0  0  0  0  0  0
    9.0801    0.4425   27.4949 C   0  0  0  0  0  0  0  0  0  0  0  0
    9.4555    1.3503   26.3145 C   0  0  0  0  0  0  0  0  0  0  0  0
    9.4363    1.2168   28.7910 C   0  0  0  0  0  0  0  0  0  0  0  0
    7.5573    0.2289   27.5882 C   0  0  0  0  0  0  0  0  0  0  0  0
    6.4831    1.1032   27.6670 C   0  0  0  0  0  0  0  0  0  0  0  0
    5.3514    0.2813   27.7935 C   0  0  0  0  0  0  0  0  0  0  0  0
    5.6854   -1.0056   27.8413 N   0  0  0  0  0  0  0  0  0  0  0  0
    7.0675   -1.0424   27.6995 O   0  0  0  0  0  0  0  0  0  0  0  0
   12.0765   -2.3379   25.3851 C   0  0  0  0  0  0  0  0  0  0  0  0
   14.9247    0.9889   19.1307 H   0  0  0  0  0  0  0  0  0  0  0  0
   15.5598   -0.5511   18.5587 H   0  0  0  0  0  0  0  0  0  0  0  0
   13.8063   -0.2907   18.6672 H   0  0  0  0  0  0  0  0  0  0  0  0
   14.0751    0.0132   21.1728 H   0  0  0  0  0  0  0  0  0  0  0  0
   15.7763   -0.3432   21.0090 H   0  0  0  0  0  0  0  0  0  0  0  0
   13.4431   -2.2979   20.7117 H   0  0  0  0  0  0  0  0  0  0  0  0
   15.4370   -3.9884   20.3725 H   0  0  0  0  0  0  0  0  0  0  0  0
   16.2005   -2.6217   19.5836 H   0  0  0  0  0  0  0  0  0  0  0  0
   14.9643   -4.0599   17.9827 H   0  0  0  0  0  0  0  0  0  0  0  0
   14.1825   -2.4778   18.0218 H   0  0  0  0  0  0  0  0  0  0  0  0
   13.4617   -3.8447   18.8889 H   0  0  0  0  0  0  0  0  0  0  0  0
   13.0068   -1.5487   22.6351 H   0  0  0  0  0  0  0  0  0  0  0  0
   14.3654   -2.5928   25.0783 H   0  0  0  0  0  0  0  0  0  0  0  0
   13.3306    0.2421   24.5916 H   0  0  0  0  0  0  0  0  0  0  0  0
   14.8881   -0.2376   25.3173 H   0  0  0  0  0  0  0  0  0  0  0  0
   13.8001   -1.2189   27.2156 H   0  0  0  0  0  0  0  0  0  0  0  0
   12.7109    0.1862   26.9381 H   0  0  0  0  0  0  0  0  0  0  0  0
   10.9887   -2.6973   26.6868 H   0  0  0  0  0  0  0  0  0  0  0  0
   12.1730   -2.2452   27.1914 H   0  0  0  0  0  0  0  0  0  0  0  0
    9.3020    0.8624   25.3488 H   0  0  0  0  0  0  0  0  0  0  0  0
    8.8694    2.2763   26.3106 H   0  0  0  0  0  0  0  0  0  0  0  0
   10.5122    1.6403   26.3599 H   0  0  0  0  0  0  0  0  0  0  0  0
    9.1234    0.6700   29.6892 H   0  0  0  0  0  0  0  0  0  0  0  0
   10.5205    1.3642   28.8669 H   0  0  0  0  0  0  0  0  0  0  0  0
    8.9639    2.2059   28.8246 H   0  0  0  0  0  0  0  0  0  0  0  0
    6.5216    2.1807   27.6360 H   0  0  0  0  0  0  0  0  0  0  0  0
    4.3086    0.5525   27.8679 H   0  0  0  0  0  0  0  0  0  0  0  0
   11.5292   -2.4134   24.3090 H   0  0  0  0  0  0  0  0  0  0  0  0
   12.0376   -3.5938   25.5124 H   0  0  0  0  0  0  0  0  0  0  0  0
  1  2  1  0
  2  3  1  0
  3  4  1  0
  4  5  1  0
  3  6  1  0
  6  7  2  0
  6  8  1  0
  8  9  1  0
  9 10  1  0
 10 11  1  0
 11 12  1  0
 12 13  1  0
 13 14  1  0
 14 15  2  0
 14 16  1  0
 16 17  1  0
 16 18  1  0
 16 19  1  0
 19 20  2  0
 20 21  1  0
 21 22  2  0
 22 23  1  0
 13 24  1  0
 24  9  1  0
 23 19  1  0
  1 25  1  0
  1 26  1  0
  1 27  1  0
  2 28  1  0
  2 29  1  0
  3 30  1  0
  4 31  1  0
  4 32  1  0
  5 33  1  0
  5 34  1  0
  5 35  1  0
  8 36  1  0
  9 37  1  0
 10 38  1  0
 10 39  1  0
 11 40  1  0
 11 41  1  0
 12 42  1  0
 12 43  1  0
 17 44  1  0
 17 45  1  0
 17 46  1  0
 18 47  1  0
 18 48  1  0
 18 49  1  0
 20 50  1  0
 21 51  1  0
 24 52  1  0
 24 53  1  0
M  END
>  <Energy>  (772) 
805.64994872020657

>  <compound_id>  (772) 
5744

>  <target_id>  (772) 
1

>  <reference_id>  (772) 
27

>  <inspiration_ids>  (772) 
[44, 27]

>  <energy_score>  (772) 
727.8901387533988

>  <distance_score>  (772) 
7.481293615696372

>  <path>  (772) 
/opt/xchem-fragalysis-2/maxwin/BulkDock/SCRATCH/511018/C5744-P27/C5744-P27.minimised.mol

>  <scratch_subdir>  (772) 
/opt/xchem-fragalysis-2/maxwin/BulkDock/SCRATCH/511018/C5744-P27

>  <fragmenstein_runtime>  (772) 
16.29879117012024

>  <fragmenstein_outcome>  (772) 
too moved

>  <fragmenstein_mode>  (772) 
expansion

>  <fragmenstein_error>  (772) 


$$$$
C5745-P44
     RDKit          3D

 47 48  0  0  0  0  0  0  0  0999 V2000
   15.6516   -1.1789   18.1010 C   0  0  0  0  0  0  0  0  0  0  0  0
   15.8425   -2.6763   18.3134 C   0  0  0  0  0  0  0  0  0  0  0  0
   14.6110   -3.4548   18.8430 C   0  0  0  0  0  0  0  0  0  0  0  0
   13.3633   -3.2647   17.9509 C   0  0  0  0  0  0  0  0  0  0  0  0
   13.5630   -3.5136   16.4594 C   0  0  0  0  0  0  0  0  0  0  0  0
   14.3858   -3.1942   20.3922 C   0  0  0  0  0  0  0  0  0  0  0  0
   15.1080   -2.4282   20.9625 O   0  0  0  0  0  0  0  0  0  0  0  0
   13.3405   -4.0463   20.8925 N   0  0  0  0  0  0  0  0  0  0  0  0
   12.8954   -4.3190   22.2585 C   0  0  0  0  0  0  0  0  0  0  0  0
   13.6496   -5.4847   22.8375 C   0  0  0  0  0  0  0  0  0  0  0  0
   14.5930   -4.7655   23.7546 C   0  0  0  0  0  0  0  0  0  0  0  0
   13.7856   -3.2393   24.0900 C   0  0  0  0  0  0  0  0  0  0  0  0
   12.7936   -3.3196   25.2044 N   0  0  0  0  0  0  0  0  0  0  0  0
   11.3974   -3.2126   25.3442 C   0  0  0  0  0  0  0  0  0  0  0  0
   10.6363   -4.1663   25.2525 O   0  0  0  0  0  0  0  0  0  0  0  0
   10.9425   -1.7811   25.7376 C   0  0  0  0  0  0  0  0  0  0  0  0
    9.5217   -1.5452   26.2402 C   0  0  0  0  0  0  0  0  0  0  0  0
    8.5738   -2.4207   26.8319 C   0  0  0  0  0  0  0  0  0  0  0  0
    7.4321   -1.8091   27.1753 N   0  0  0  0  0  0  0  0  0  0  0  0
    7.5977   -0.4922   26.7887 O   0  0  0  0  0  0  0  0  0  0  0  0
    8.8379   -0.3407   26.2593 C   0  0  0  0  0  0  0  0  0  0  0  0
   13.1753   -3.0425   23.4215 C   0  0  0  0  0  0  0  0  0  0  0  0
   16.5989   -0.7282   17.7866 H   0  0  0  0  0  0  0  0  0  0  0  0
   15.3412   -0.6804   19.0228 H   0  0  0  0  0  0  0  0  0  0  0  0
   14.9204   -0.9701   17.3169 H   0  0  0  0  0  0  0  0  0  0  0  0
   16.1656   -3.1204   17.3636 H   0  0  0  0  0  0  0  0  0  0  0  0
   16.6833   -2.8217   19.0036 H   0  0  0  0  0  0  0  0  0  0  0  0
   14.8890   -4.5183   18.7878 H   0  0  0  0  0  0  0  0  0  0  0  0
   12.5849   -3.9572   18.2761 H   0  0  0  0  0  0  0  0  0  0  0  0
   12.9626   -2.2604   18.0773 H   0  0  0  0  0  0  0  0  0  0  0  0
   14.0085   -4.4948   16.2803 H   0  0  0  0  0  0  0  0  0  0  0  0
   14.2049   -2.7572   16.0007 H   0  0  0  0  0  0  0  0  0  0  0  0
   12.5977   -3.4814   15.9432 H   0  0  0  0  0  0  0  0  0  0  0  0
   12.9926   -4.6246   20.1328 H   0  0  0  0  0  0  0  0  0  0  0  0
   11.8266   -4.5397   22.1986 H   0  0  0  0  0  0  0  0  0  0  0  0
   14.1592   -6.1213   22.1087 H   0  0  0  0  0  0  0  0  0  0  0  0
   12.9719   -6.1111   23.4285 H   0  0  0  0  0  0  0  0  0  0  0  0
   14.7842   -5.3255   24.6773 H   0  0  0  0  0  0  0  0  0  0  0  0
   15.5364   -4.5245   23.2495 H   0  0  0  0  0  0  0  0  0  0  0  0
   14.6174   -2.2930   24.1169 H   0  0  0  0  0  0  0  0  0  0  0  0
   14.4967   -3.3258   25.0111 H   0  0  0  0  0  0  0  0  0  0  0  0
   11.6179   -1.4408   26.5341 H   0  0  0  0  0  0  0  0  0  0  0  0
   11.1168   -1.1324   24.8739 H   0  0  0  0  0  0  0  0  0  0  0  0
    8.6662   -3.4829   27.0153 H   0  0  0  0  0  0  0  0  0  0  0  0
    9.0840    0.6628   25.9453 H   0  0  0  0  0  0  0  0  0  0  0  0
   12.0578   -2.8075   23.2557 H   0  0  0  0  0  0  0  0  0  0  0  0
   13.2949   -1.9344   22.9407 H   0  0  0  0  0  0  0  0  0  0  0  0
  1  2  1  0
  2  3  1  0
  3  4  1  0
  4  5  1  0
  3  6  1  0
  6  7  2  0
  6  8  1  0
  8  9  1  0
  9 10  1  0
 10 11  1  0
 11 12  1  0
 12 13  1  0
 13 14  1  0
 14 15  2  0
 14 16  1  0
 16 17  1  0
 17 18  1  0
 18 19  2  0
 19 20  1  0
 20 21  1  0
 13 22  1  0
 22  9  1  0
 21 17  2  0
  1 23  1  0
  1 24  1  0
  1 25  1  0
  2 26  1  0
  2 27  1  0
  3 28  1  0
  4 29  1  0
  4 30  1  0
  5 31  1  0
  5 32  1  0
  5 33  1  0
  8 34  1  0
  9 35  1  0
 10 36  1  0
 10 37  1  0
 11 38  1  0
 11 39  1  0
 12 40  1  0
 12 41  1  0
 16 42  1  0
 16 43  1  0
 18 44  1  0
 21 45  1  0
 22 46  1  0
 22 47  1  0
M  END
>  <Energy>  (773) 
569.37984173063489

>  <compound_id>  (773) 
5745

>  <target_id>  (773) 
1

>  <reference_id>  (773) 
44

>  <inspiration_ids>  (773) 
[44, 27]

>  <energy_score>  (773) 
522.5940170339009

>  <distance_score>  (773) 
6.887430473226728

>  <path>  (773) 
/opt/xchem-fragalysis-2/maxwin/BulkDock/SCRATCH/511018/C5745-P44/C5745-P44.minimised.mol

>  <scratch_subdir>  (773) 
/opt/xchem-fragalysis-2/maxwin/BulkDock/SCRATCH/511018/C5745-P44

>  <fragmenstein_runtime>  (773) 
10.662168025970459

>  <fragmenstein_outcome>  (773) 
too moved

>  <fragmenstein_mode>  (773) 
expansion

>  <fragmenstein_error>  (773) 


$$$$
C5745-P27
     RDKit          3D

 47 48  0  0  0  0  0  0  0  0999 V2000
   14.6254   -0.7904   19.1135 C   0  0  0  0  0  0  0  0  0  0  0  0
   15.1502   -2.0406   19.8097 C   0  0  0  0  0  0  0  0  0  0  0  0
   14.0871   -3.1225   20.1347 C   0  0  0  0  0  0  0  0  0  0  0  0
   14.0014   -4.2063   19.0388 C   0  0  0  0  0  0  0  0  0  0  0  0
   13.5978   -3.6992   17.6569 C   0  0  0  0  0  0  0  0  0  0  0  0
   14.4275   -3.7226   21.5320 C   0  0  0  0  0  0  0  0  0  0  0  0
   15.2008   -4.6361   21.5893 O   0  0  0  0  0  0  0  0  0  0  0  0
   13.7801   -2.9661   22.5835 N   0  0  0  0  0  0  0  0  0  0  0  0
   13.9392   -3.0135   24.0224 C   0  0  0  0  0  0  0  0  0  0  0  0
   14.8394   -1.8711   24.4467 C   0  0  0  0  0  0  0  0  0  0  0  0
   13.9383   -1.2259   25.4543 C   0  0  0  0  0  0  0  0  0  0  0  0
   12.9084   -2.5933   25.8763 C   0  0  0  0  0  0  0  0  0  0  0  0
   11.9738   -2.2746   26.8178 N   0  0  0  0  0  0  0  0  0  0  0  0
   10.5790   -2.2321   26.8872 C   0  0  0  0  0  0  0  0  0  0  0  0
    9.8878   -3.1823   27.2300 O   0  0  0  0  0  0  0  0  0  0  0  0
    9.9666   -0.8495   26.6064 C   0  0  0  0  0  0  0  0  0  0  0  0
    8.6307   -0.5421   27.2655 C   0  0  0  0  0  0  0  0  0  0  0  0
    8.1741    0.7056   27.7739 C   0  0  0  0  0  0  0  0  0  0  0  0
    6.9038    0.6752   28.1890 N   0  0  0  0  0  0  0  0  0  0  0  0
    6.4895   -0.6297   27.9718 O   0  0  0  0  0  0  0  0  0  0  0  0
    7.5185   -1.3405   27.4417 C   0  0  0  0  0  0  0  0  0  0  0  0
   12.4309   -2.8100   25.0445 C   0  0  0  0  0  0  0  0  0  0  0  0
   14.0843   -1.0204   18.1939 H   0  0  0  0  0  0  0  0  0  0  0  0
   15.4613   -0.1330   18.8521 H   0  0  0  0  0  0  0  0  0  0  0  0
   13.9685   -0.2289   19.7832 H   0  0  0  0  0  0  0  0  0  0  0  0
   15.9454   -2.4800   19.1945 H   0  0  0  0  0  0  0  0  0  0  0  0
   15.6433   -1.7093   20.7328 H   0  0  0  0  0  0  0  0  0  0  0  0
   13.1004   -2.6861   20.2163 H   0  0  0  0  0  0  0  0  0  0  0  0
   13.2712   -4.9589   19.3602 H   0  0  0  0  0  0  0  0  0  0  0  0
   14.9592   -4.7344   18.9547 H   0  0  0  0  0  0  0  0  0  0  0  0
   12.7023   -3.0766   17.7007 H   0  0  0  0  0  0  0  0  0  0  0  0
   13.3877   -4.5433   16.9931 H   0  0  0  0  0  0  0  0  0  0  0  0
   14.4046   -3.1189   17.2002 H   0  0  0  0  0  0  0  0  0  0  0  0
   13.2459   -2.2010   22.1642 H   0  0  0  0  0  0  0  0  0  0  0  0
   14.3883   -3.9842   24.2743 H   0  0  0  0  0  0  0  0  0  0  0  0
   15.7471   -2.2558   24.9235 H   0  0  0  0  0  0  0  0  0  0  0  0
   15.1297   -1.1788   23.6507 H   0  0  0  0  0  0  0  0  0  0  0  0
   14.4642   -0.8108   26.3228 H   0  0  0  0  0  0  0  0  0  0  0  0
   13.3089   -0.4378   25.0191 H   0  0  0  0  0  0  0  0  0  0  0  0
   13.6191   -2.5090   26.7907 H   0  0  0  0  0  0  0  0  0  0  0  0
   13.4389   -3.7059   26.1646 H   0  0  0  0  0  0  0  0  0  0  0  0
    9.8460   -0.7537   25.5236 H   0  0  0  0  0  0  0  0  0  0  0  0
   10.6895   -0.0874   26.9239 H   0  0  0  0  0  0  0  0  0  0  0  0
    8.7119    1.6410   27.8355 H   0  0  0  0  0  0  0  0  0  0  0  0
    7.3035   -2.3767   27.2289 H   0  0  0  0  0  0  0  0  0  0  0  0
   11.7610   -2.1200   24.3957 H   0  0  0  0  0  0  0  0  0  0  0  0
   11.8176   -3.7818   24.8501 H   0  0  0  0  0  0  0  0  0  0  0  0
  1  2  1  0
  2  3  1  0
  3  4  1  0
  4  5  1  0
  3  6  1  0
  6  7  2  0
  6  8  1  0
  8  9  1  0
  9 10  1  0
 10 11  1  0
 11 12  1  0
 12 13  1  0
 13 14  1  0
 14 15  2  0
 14 16  1  0
 16 17  1  0
 17 18  1  0
 18 19  2  0
 19 20  1  0
 20 21  1  0
 13 22  1  0
 22  9  1  0
 21 17  2  0
  1 23  1  0
  1 24  1  0
  1 25  1  0
  2 26  1  0
  2 27  1  0
  3 28  1  0
  4 29  1  0
  4 30  1  0
  5 31  1  0
  5 32  1  0
  5 33  1  0
  8 34  1  0
  9 35  1  0
 10 36  1  0
 10 37  1  0
 11 38  1  0
 11 39  1  0
 12 40  1  0
 12 41  1  0
 16 42  1  0
 16 43  1  0
 18 44  1  0
 21 45  1  0
 22 46  1  0
 22 47  1  0
M  END
>  <Energy>  (774) 
608.1318938043803

>  <compound_id>  (774) 
5745

>  <target_id>  (774) 
1

>  <reference_id>  (774) 
27

>  <inspiration_ids>  (774) 
[44, 27]

>  <energy_score>  (774) 
561.3460691076483

>  <distance_score>  (774) 
7.139718126194974

>  <path>  (774) 
/opt/xchem-fragalysis-2/maxwin/BulkDock/SCRATCH/511018/C5745-P27/C5745-P27.minimised.mol

>  <scratch_subdir>  (774) 
/opt/xchem-fragalysis-2/maxwin/BulkDock/SCRATCH/511018/C5745-P27

>  <fragmenstein_runtime>  (774) 
12.238358974456787

>  <fragmenstein_outcome>  (774) 
too moved

>  <fragmenstein_mode>  (774) 
expansion

>  <fragmenstein_error>  (774) 


$$$$
C5746-P44
     RDKit          3D

 47 48  0  0  0  0  0  0  0  0999 V2000
   16.1757    2.7285   19.2452 C   0  0  0  0  0  0  0  0  0  0  0  0
   15.2438    2.2672   20.3594 C   0  0  0  0  0  0  0  0  0  0  0  0
   15.5227    0.8503   20.9263 C   0  0  0  0  0  0  0  0  0  0  0  0
   15.7742   -0.1329   19.7354 C   0  0  0  0  0  0  0  0  0  0  0  0
   15.6445   -1.6313   19.9612 C   0  0  0  0  0  0  0  0  0  0  0  0
   14.3937    0.4372   21.9330 C   0  0  0  0  0  0  0  0  0  0  0  0
   13.8025   -0.5808   21.7305 O   0  0  0  0  0  0  0  0  0  0  0  0
   14.2506    1.4169   22.9890 N   0  0  0  0  0  0  0  0  0  0  0  0
   13.2778    1.5180   24.0812 C   0  0  0  0  0  0  0  0  0  0  0  0
   11.8351    1.6601   23.6294 C   0  0  0  0  0  0  0  0  0  0  0  0
   10.8802    0.8636   24.5529 C   0  0  0  0  0  0  0  0  0  0  0  0
   10.8950    1.2884   25.9972 N   0  0  0  0  0  0  0  0  0  0  0  0
    9.5737    1.1156   26.5834 C   0  0  0  0  0  0  0  0  0  0  0  0
    9.0917    0.1738   27.1588 O   0  0  0  0  0  0  0  0  0  0  0  0
    8.7575    2.4334   26.4903 C   0  0  0  0  0  0  0  0  0  0  0  0
    7.2550    2.3099   26.6989 C   0  0  0  0  0  0  0  0  0  0  0  0
    6.5215    1.4934   27.6026 C   0  0  0  0  0  0  0  0  0  0  0  0
    5.1999    1.6814   27.5247 N   0  0  0  0  0  0  0  0  0  0  0  0
    5.0299    2.6432   26.5458 O   0  0  0  0  0  0  0  0  0  0  0  0
    6.2466    3.0188   26.0745 C   0  0  0  0  0  0  0  0  0  0  0  0
   12.1248    0.3751   26.0256 C   0  0  0  0  0  0  0  0  0  0  0  0
   13.3226    0.3541   25.0369 C   0  0  0  0  0  0  0  0  0  0  0  0
   17.2193    2.6864   19.5733 H   0  0  0  0  0  0  0  0  0  0  0  0
   15.9502    3.7664   18.9782 H   0  0  0  0  0  0  0  0  0  0  0  0
   16.0769    2.1308   18.3363 H   0  0  0  0  0  0  0  0  0  0  0  0
   15.3247    3.0102   21.1608 H   0  0  0  0  0  0  0  0  0  0  0  0
   14.2076    2.3256   20.0153 H   0  0  0  0  0  0  0  0  0  0  0  0
   16.4495    0.8797   21.5161 H   0  0  0  0  0  0  0  0  0  0  0  0
   16.8048    0.0432   19.3964 H   0  0  0  0  0  0  0  0  0  0  0  0
   15.1492    0.1313   18.8821 H   0  0  0  0  0  0  0  0  0  0  0  0
   14.6007   -1.9548   19.9758 H   0  0  0  0  0  0  0  0  0  0  0  0
   16.1298   -1.9336   20.8940 H   0  0  0  0  0  0  0  0  0  0  0  0
   16.1283   -2.1730   19.1410 H   0  0  0  0  0  0  0  0  0  0  0  0
   14.9764    2.1146   22.8930 H   0  0  0  0  0  0  0  0  0  0  0  0
   13.5579    2.4257   24.6308 H   0  0  0  0  0  0  0  0  0  0  0  0
   11.5581    2.7223   23.6532 H   0  0  0  0  0  0  0  0  0  0  0  0
   11.6946    1.3451   22.5942 H   0  0  0  0  0  0  0  0  0  0  0  0
   10.8583   -0.2261   24.4141 H   0  0  0  0  0  0  0  0  0  0  0  0
    9.8833    1.1412   24.1868 H   0  0  0  0  0  0  0  0  0  0  0  0
    8.9458    2.9002   25.5184 H   0  0  0  0  0  0  0  0  0  0  0  0
    9.1525    3.1077   27.2603 H   0  0  0  0  0  0  0  0  0  0  0  0
    6.8976    0.7688   28.3129 H   0  0  0  0  0  0  0  0  0  0  0  0
    6.2246    3.7833   25.3126 H   0  0  0  0  0  0  0  0  0  0  0  0
   12.5646    0.6612   26.9936 H   0  0  0  0  0  0  0  0  0  0  0  0
   11.7861   -0.6551   26.2323 H   0  0  0  0  0  0  0  0  0  0  0  0
   14.2696    0.3363   25.5905 H   0  0  0  0  0  0  0  0  0  0  0  0
   13.2940   -0.5945   24.4840 H   0  0  0  0  0  0  0  0  0  0  0  0
  1  2  1  0
  2  3  1  0
  3  4  1  0
  4  5  1  0
  3  6  1  0
  6  7  2  0
  6  8  1  0
  8  9  1  0
  9 10  1  0
 10 11  1  0
 11 12  1  0
 12 13  1  0
 13 14  2  0
 13 15  1  0
 15 16  1  0
 16 17  1  0
 17 18  2  0
 18 19  1  0
 19 20  1  0
 12 21  1  0
 21 22  1  0
 22  9  1  0
 20 16  2  0
  1 23  1  0
  1 24  1  0
  1 25  1  0
  2 26  1  0
  2 27  1  0
  3 28  1  0
  4 29  1  0
  4 30  1  0
  5 31  1  0
  5 32  1  0
  5 33  1  0
  8 34  1  0
  9 35  1  0
 10 36  1  0
 10 37  1  0
 11 38  1  0
 11 39  1  0
 15 40  1  0
 15 41  1  0
 17 42  1  0
 20 43  1  0
 21 44  1  0
 21 45  1  0
 22 46  1  0
 22 47  1  0
M  END
>  <Energy>  (775) 
78.323535752809818

>  <compound_id>  (775) 
5746

>  <target_id>  (775) 
1

>  <reference_id>  (775) 
44

>  <inspiration_ids>  (775) 
[44, 27]

>  <energy_score>  (775) 
45.08417359692214

>  <distance_score>  (775) 
7.4944080252471394

>  <path>  (775) 
/opt/xchem-fragalysis-2/maxwin/BulkDock/SCRATCH/511018/C5746-P44/C5746-P44.minimised.mol

>  <scratch_subdir>  (775) 
/opt/xchem-fragalysis-2/maxwin/BulkDock/SCRATCH/511018/C5746-P44

>  <fragmenstein_runtime>  (775) 
11.344077587127686

>  <fragmenstein_outcome>  (775) 
too moved

>  <fragmenstein_mode>  (775) 
expansion

>  <fragmenstein_error>  (775) 


$$$$
C5746-P27
     RDKit          3D

 47 48  0  0  0  0  0  0  0  0999 V2000
   16.5470    1.0901   16.2840 C   0  0  0  0  0  0  0  0  0  0  0  0
   16.3149   -0.1048   15.3656 C   0  0  0  0  0  0  0  0  0  0  0  0
   14.8302   -0.4629   15.2637 C   0  0  0  0  0  0  0  0  0  0  0  0
   14.5416   -1.5555   14.2276 C   0  0  0  0  0  0  0  0  0  0  0  0
   13.0440   -1.7812   14.0204 C   0  0  0  0  0  0  0  0  0  0  0  0
   14.2208   -0.8126   16.6254 C   0  0  0  0  0  0  0  0  0  0  0  0
   13.3095   -0.1236   16.9895 O   0  0  0  0  0  0  0  0  0  0  0  0
   14.8377   -1.9585   17.2429 N   0  0  0  0  0  0  0  0  0  0  0  0
   14.4944   -2.6796   18.4264 C   0  0  0  0  0  0  0  0  0  0  0  0
   13.8347   -4.0363   18.2253 C   0  0  0  0  0  0  0  0  0  0  0  0
   13.3924   -4.5211   19.6318 C   0  0  0  0  0  0  0  0  0  0  0  0
   13.0720   -3.2828   20.4533 N   0  0  0  0  0  0  0  0  0  0  0  0
   11.7666   -3.5318   21.3539 C   0  0  0  0  0  0  0  0  0  0  0  0
   11.7576   -3.9603   22.4744 O   0  0  0  0  0  0  0  0  0  0  0  0
   10.1374   -2.8464   20.2924 C   0  0  0  0  0  0  0  0  0  0  0  0
    8.7839   -1.1550   19.6515 C   0  0  0  0  0  0  0  0  0  0  0  0
    8.0173   -0.4930   20.5851 C   0  0  0  0  0  0  0  0  0  0  0  0
    6.9684   -0.0136   20.1633 N   0  0  0  0  0  0  0  0  0  0  0  0
    6.9099   -0.1308   18.8823 O   0  0  0  0  0  0  0  0  0  0  0  0
    8.0756   -0.4670   18.4578 C   0  0  0  0  0  0  0  0  0  0  0  0
   14.5442   -3.3953   20.7850 C   0  0  0  0  0  0  0  0  0  0  0  0
   15.4274   -2.8074   19.6251 C   0  0  0  0  0  0  0  0  0  0  0  0
   15.9670    1.9587   15.9561 H   0  0  0  0  0  0  0  0  0  0  0  0
   16.2754    0.8620   17.3191 H   0  0  0  0  0  0  0  0  0  0  0  0
   17.6056    1.3690   16.2730 H   0  0  0  0  0  0  0  0  0  0  0  0
   16.6916    0.1509   14.3674 H   0  0  0  0  0  0  0  0  0  0  0  0
   16.9160   -0.9510   15.7147 H   0  0  0  0  0  0  0  0  0  0  0  0
   14.3124    0.4447   14.9177 H   0  0  0  0  0  0  0  0  0  0  0  0
   15.0212   -2.4954   14.5175 H   0  0  0  0  0  0  0  0  0  0  0  0
   14.9801   -1.2630   13.2656 H   0  0  0  0  0  0  0  0  0  0  0  0
   12.5771   -2.2155   14.9098 H   0  0  0  0  0  0  0  0  0  0  0  0
   12.8777   -2.4684   13.1856 H   0  0  0  0  0  0  0  0  0  0  0  0
   12.5335   -0.8420   13.7843 H   0  0  0  0  0  0  0  0  0  0  0  0
   15.6371   -2.2403   16.6905 H   0  0  0  0  0  0  0  0  0  0  0  0
   13.7212   -1.9990   18.7723 H   0  0  0  0  0  0  0  0  0  0  0  0
   14.5306   -4.7400   17.7650 H   0  0  0  0  0  0  0  0  0  0  0  0
   12.9672   -3.9430   17.5613 H   0  0  0  0  0  0  0  0  0  0  0  0
   12.4604   -5.0718   19.5040 H   0  0  0  0  0  0  0  0  0  0  0  0
   14.0200   -5.3248   20.0519 H   0  0  0  0  0  0  0  0  0  0  0  0
   11.3756   -2.6470   19.4308 H   0  0  0  0  0  0  0  0  0  0  0  0
   11.3949   -2.7273   20.2688 H   0  0  0  0  0  0  0  0  0  0  0  0
    8.4623   -0.1429   21.4328 H   0  0  0  0  0  0  0  0  0  0  0  0
    8.2310   -0.2901   17.3814 H   0  0  0  0  0  0  0  0  0  0  0  0
   14.6404   -2.6676   21.6063 H   0  0  0  0  0  0  0  0  0  0  0  0
   14.9109   -4.3010   21.2944 H   0  0  0  0  0  0  0  0  0  0  0  0
   15.8323   -1.8297   19.9097 H   0  0  0  0  0  0  0  0  0  0  0  0
   16.2751   -3.4685   19.4149 H   0  0  0  0  0  0  0  0  0  0  0  0
  1  2  1  0
  2  3  1  0
  3  4  1  0
  4  5  1  0
  3  6  1  0
  6  7  2  0
  6  8  1  0
  8  9  1  0
  9 10  1  0
 10 11  1  0
 11 12  1  0
 12 13  1  0
 13 14  2  0
 13 15  1  0
 15 16  1  0
 16 17  1  0
 17 18  2  0
 18 19  1  0
 19 20  1  0
 12 21  1  0
 21 22  1  0
 22  9  1  0
 20 16  2  0
  1 23  1  0
  1 24  1  0
  1 25  1  0
  2 26  1  0
  2 27  1  0
  3 28  1  0
  4 29  1  0
  4 30  1  0
  5 31  1  0
  5 32  1  0
  5 33  1  0
  8 34  1  0
  9 35  1  0
 10 36  1  0
 10 37  1  0
 11 38  1  0
 11 39  1  0
 15 40  1  0
 15 41  1  0
 17 42  1  0
 20 43  1  0
 21 44  1  0
 21 45  1  0
 22 46  1  0
 22 47  1  0
M  END
>  <Energy>  (776) 
700.28538632910977

>  <compound_id>  (776) 
5746

>  <target_id>  (776) 
1

>  <reference_id>  (776) 
27

>  <inspiration_ids>  (776) 
[44, 27]

>  <energy_score>  (776) 
667.0460241732278

>  <distance_score>  (776) 
7.268659810556097

>  <path>  (776) 
/opt/xchem-fragalysis-2/maxwin/BulkDock/SCRATCH/511018/C5746-P27/C5746-P27.minimised.mol

>  <scratch_subdir>  (776) 
/opt/xchem-fragalysis-2/maxwin/BulkDock/SCRATCH/511018/C5746-P27

>  <fragmenstein_runtime>  (776) 
9.6037118434906

>  <fragmenstein_outcome>  (776) 
too moved

>  <fragmenstein_mode>  (776) 
expansion

>  <fragmenstein_error>  (776) 


$$$$
C5749-P44
     RDKit          3D

 53 54  0  0  0  0  0  0  0  0999 V2000
   15.6990   -0.4219   21.4464 C   0  0  0  0  0  0  0  0  0  0  0  0
   14.4848   -1.2698   21.1068 C   0  0  0  0  0  0  0  0  0  0  0  0
   14.5919   -2.7214   21.6062 C   0  0  0  0  0  0  0  0  0  0  0  0
   13.6302   -3.6998   20.8902 C   0  0  0  0  0  0  0  0  0  0  0  0
   13.8296   -3.8159   19.3779 C   0  0  0  0  0  0  0  0  0  0  0  0
   14.4775   -2.8968   23.1601 C   0  0  0  0  0  0  0  0  0  0  0  0
   15.3865   -3.4676   23.6963 O   0  0  0  0  0  0  0  0  0  0  0  0
   13.2417   -2.3882   23.6957 N   0  0  0  0  0  0  0  0  0  0  0  0
   12.6661   -2.4894   25.0265 C   0  0  0  0  0  0  0  0  0  0  0  0
   11.2327   -2.9689   25.0279 C   0  0  0  0  0  0  0  0  0  0  0  0
   10.6268   -2.8601   26.4494 C   0  0  0  0  0  0  0  0  0  0  0  0
   10.3401   -1.5126   27.1387 N   0  0  0  0  0  0  0  0  0  0  0  0
    9.3389   -0.7814   26.4069 C   0  0  0  0  0  0  0  0  0  0  0  0
    9.4521    0.0219   25.5180 O   0  0  0  0  0  0  0  0  0  0  0  0
    7.9244   -1.0866   26.9915 C   0  0  0  0  0  0  0  0  0  0  0  0
    6.9515    0.1029   26.7857 C   0  0  0  0  0  0  0  0  0  0  0  0
    5.4719    0.0021   27.1276 C   0  0  0  0  0  0  0  0  0  0  0  0
    4.6439    1.1201   26.9119 C   0  0  0  0  0  0  0  0  0  0  0  0
    3.2803    1.0679   27.2001 C   0  0  0  0  0  0  0  0  0  0  0  0
    2.7695   -0.1153   27.6978 C   0  0  0  0  0  0  0  0  0  0  0  0
    3.5210   -1.2163   27.9205 N   0  0  0  0  0  0  0  0  0  0  0  0
    4.8460   -1.1321   27.6268 C   0  0  0  0  0  0  0  0  0  0  0  0
   11.8563   -1.4225   27.1046 C   0  0  0  0  0  0  0  0  0  0  0  0
   12.6187   -1.1812   25.7788 C   0  0  0  0  0  0  0  0  0  0  0  0
   15.5744    0.5928   21.0549 H   0  0  0  0  0  0  0  0  0  0  0  0
   16.6087   -0.8444   21.0081 H   0  0  0  0  0  0  0  0  0  0  0  0
   15.8399   -0.3515   22.5295 H   0  0  0  0  0  0  0  0  0  0  0  0
   14.3898   -1.2537   20.0195 H   0  0  0  0  0  0  0  0  0  0  0  0
   13.6077   -0.7744   21.5231 H   0  0  0  0  0  0  0  0  0  0  0  0
   15.6077   -3.0624   21.3541 H   0  0  0  0  0  0  0  0  0  0  0  0
   12.5910   -3.4514   21.1190 H   0  0  0  0  0  0  0  0  0  0  0  0
   13.7823   -4.6995   21.3194 H   0  0  0  0  0  0  0  0  0  0  0  0
   13.1956   -4.6142   18.9802 H   0  0  0  0  0  0  0  0  0  0  0  0
   13.5719   -2.8968   18.8477 H   0  0  0  0  0  0  0  0  0  0  0  0
   14.8690   -4.0671   19.1443 H   0  0  0  0  0  0  0  0  0  0  0  0
   12.6682   -2.0338   22.9300 H   0  0  0  0  0  0  0  0  0  0  0  0
   13.2885   -3.2014   25.5833 H   0  0  0  0  0  0  0  0  0  0  0  0
   11.1828   -4.0069   24.6804 H   0  0  0  0  0  0  0  0  0  0  0  0
   10.6401   -2.3707   24.3431 H   0  0  0  0  0  0  0  0  0  0  0  0
   11.0995   -3.5693   27.1508 H   0  0  0  0  0  0  0  0  0  0  0  0
    9.6206   -3.2940   26.3408 H   0  0  0  0  0  0  0  0  0  0  0  0
    7.5413   -1.9760   26.4814 H   0  0  0  0  0  0  0  0  0  0  0  0
    8.0075   -1.3130   28.0603 H   0  0  0  0  0  0  0  0  0  0  0  0
    6.9830    0.3794   25.7307 H   0  0  0  0  0  0  0  0  0  0  0  0
    7.3579    0.9586   27.3419 H   0  0  0  0  0  0  0  0  0  0  0  0
    5.0658    2.0386   26.5089 H   0  0  0  0  0  0  0  0  0  0  0  0
    2.6383    1.9244   27.0316 H   0  0  0  0  0  0  0  0  0  0  0  0
    1.7134   -0.2189   27.9294 H   0  0  0  0  0  0  0  0  0  0  0  0
    5.3999   -2.0472   27.8159 H   0  0  0  0  0  0  0  0  0  0  0  0
   12.3471   -2.1539   27.7687 H   0  0  0  0  0  0  0  0  0  0  0  0
   12.0085   -0.4796   27.6531 H   0  0  0  0  0  0  0  0  0  0  0  0
   13.6374   -0.8364   25.9927 H   0  0  0  0  0  0  0  0  0  0  0  0
   12.1316   -0.3946   25.1905 H   0  0  0  0  0  0  0  0  0  0  0  0
  1  2  1  0
  2  3  1  0
  3  4  1  0
  4  5  1  0
  3  6  1  0
  6  7  2  0
  6  8  1  0
  8  9  1  0
  9 10  1  0
 10 11  1  0
 11 12  1  0
 12 13  1  0
 13 14  2  0
 13 15  1  0
 15 16  1  0
 16 17  1  0
 17 18  2  0
 18 19  1  0
 19 20  2  0
 20 21  1  0
 21 22  2  0
 12 23  1  0
 23 24  1  0
 24  9  1  0
 22 17  1  0
  1 25  1  0
  1 26  1  0
  1 27  1  0
  2 28  1  0
  2 29  1  0
  3 30  1  0
  4 31  1  0
  4 32  1  0
  5 33  1  0
  5 34  1  0
  5 35  1  0
  8 36  1  0
  9 37  1  0
 10 38  1  0
 10 39  1  0
 11 40  1  0
 11 41  1  0
 15 42  1  0
 15 43  1  0
 16 44  1  0
 16 45  1  0
 18 46  1  0
 19 47  1  0
 20 48  1  0
 22 49  1  0
 23 50  1  0
 23 51  1  0
 24 52  1  0
 24 53  1  0
M  END
>  <Energy>  (777) 
70.846039205154753

>  <compound_id>  (777) 
5749

>  <target_id>  (777) 
1

>  <reference_id>  (777) 
44

>  <inspiration_ids>  (777) 
[44, 27]

>  <energy_score>  (777) 
50.523831347884624

>  <distance_score>  (777) 
7.110390075225307

>  <path>  (777) 
/opt/xchem-fragalysis-2/maxwin/BulkDock/SCRATCH/511018/C5749-P44/C5749-P44.minimised.mol

>  <scratch_subdir>  (777) 
/opt/xchem-fragalysis-2/maxwin/BulkDock/SCRATCH/511018/C5749-P44

>  <fragmenstein_runtime>  (777) 
15.26278305053711

>  <fragmenstein_outcome>  (777) 
too moved

>  <fragmenstein_mode>  (777) 
expansion

>  <fragmenstein_error>  (777) 


$$$$
C5749-P27
     RDKit          3D

 53 54  0  0  0  0  0  0  0  0999 V2000
   14.4414    2.7238   16.2136 C   0  0  0  0  0  0  0  0  0  0  0  0
   14.8154    2.6062   17.6811 C   0  0  0  0  0  0  0  0  0  0  0  0
   14.0541    1.5157   18.4507 C   0  0  0  0  0  0  0  0  0  0  0  0
   14.3725    0.0776   17.9653 C   0  0  0  0  0  0  0  0  0  0  0  0
   13.5267   -0.4274   16.7966 C   0  0  0  0  0  0  0  0  0  0  0  0
   14.4153    1.6757   19.9661 C   0  0  0  0  0  0  0  0  0  0  0  0
   15.3841    1.1097   20.3862 O   0  0  0  0  0  0  0  0  0  0  0  0
   13.4969    2.5844   20.6177 N   0  0  0  0  0  0  0  0  0  0  0  0
   13.5170    3.1693   21.9555 C   0  0  0  0  0  0  0  0  0  0  0  0
   12.3757    4.1411   22.1823 C   0  0  0  0  0  0  0  0  0  0  0  0
   11.1306    3.4548   22.7741 C   0  0  0  0  0  0  0  0  0  0  0  0
   11.2355    2.9921   24.2135 N   0  0  0  0  0  0  0  0  0  0  0  0
    9.9304    2.9641   24.8225 C   0  0  0  0  0  0  0  0  0  0  0  0
    9.1225    2.0788   24.8931 O   0  0  0  0  0  0  0  0  0  0  0  0
    9.5759    4.3050   25.4988 C   0  0  0  0  0  0  0  0  0  0  0  0
    8.1603    4.8399   25.1343 C   0  0  0  0  0  0  0  0  0  0  0  0
    6.8981    4.5301   25.9385 C   0  0  0  0  0  0  0  0  0  0  0  0
    5.6608    5.0361   25.4920 C   0  0  0  0  0  0  0  0  0  0  0  0
    4.4773    4.7600   26.1817 C   0  0  0  0  0  0  0  0  0  0  0  0
    4.5551    3.9814   27.3197 C   0  0  0  0  0  0  0  0  0  0  0  0
    5.7141    3.4827   27.7959 N   0  0  0  0  0  0  0  0  0  0  0  0
    6.8499    3.7626   27.0980 C   0  0  0  0  0  0  0  0  0  0  0  0
   12.0538    1.8787   23.5655 C   0  0  0  0  0  0  0  0  0  0  0  0
   13.4863    2.1635   23.0952 C   0  0  0  0  0  0  0  0  0  0  0  0
   14.8797    1.9130   15.6265 H   0  0  0  0  0  0  0  0  0  0  0  0
   13.3561    2.7251   16.0740 H   0  0  0  0  0  0  0  0  0  0  0  0
   14.8347    3.6602   15.8036 H   0  0  0  0  0  0  0  0  0  0  0  0
   14.6186    3.5767   18.1553 H   0  0  0  0  0  0  0  0  0  0  0  0
   15.8974    2.4463   17.7673 H   0  0  0  0  0  0  0  0  0  0  0  0
   12.9866    1.6996   18.3153 H   0  0  0  0  0  0  0  0  0  0  0  0
   15.4341   -0.0022   17.7011 H   0  0  0  0  0  0  0  0  0  0  0  0
   14.2176   -0.6207   18.7972 H   0  0  0  0  0  0  0  0  0  0  0  0
   13.7515    0.0963   15.8666 H   0  0  0  0  0  0  0  0  0  0  0  0
   13.7304   -1.4900   16.6265 H   0  0  0  0  0  0  0  0  0  0  0  0
   12.4589   -0.3216   16.9954 H   0  0  0  0  0  0  0  0  0  0  0  0
   12.8345    2.9388   19.9285 H   0  0  0  0  0  0  0  0  0  0  0  0
   14.4714    3.7086   21.9916 H   0  0  0  0  0  0  0  0  0  0  0  0
   12.1113    4.6665   21.2574 H   0  0  0  0  0  0  0  0  0  0  0  0
   12.7038    4.9100   22.8947 H   0  0  0  0  0  0  0  0  0  0  0  0
   10.3864    4.2668   22.8125 H   0  0  0  0  0  0  0  0  0  0  0  0
   10.6268    2.7479   22.1048 H   0  0  0  0  0  0  0  0  0  0  0  0
    9.6973    4.1886   26.5803 H   0  0  0  0  0  0  0  0  0  0  0  0
   10.3117    5.0518   25.1748 H   0  0  0  0  0  0  0  0  0  0  0  0
    8.2421    5.9360   25.1527 H   0  0  0  0  0  0  0  0  0  0  0  0
    7.9540    4.5619   24.0918 H   0  0  0  0  0  0  0  0  0  0  0  0
    5.6157    5.6445   24.5914 H   0  0  0  0  0  0  0  0  0  0  0  0
    3.5245    5.1429   25.8355 H   0  0  0  0  0  0  0  0  0  0  0  0
    3.6696    3.7313   27.8956 H   0  0  0  0  0  0  0  0  0  0  0  0
    7.7441    3.3073   27.5151 H   0  0  0  0  0  0  0  0  0  0  0  0
   11.4778    1.2279   22.8858 H   0  0  0  0  0  0  0  0  0  0  0  0
   12.1811    1.1968   24.4219 H   0  0  0  0  0  0  0  0  0  0  0  0
   14.0392    2.5832   23.9460 H   0  0  0  0  0  0  0  0  0  0  0  0
   13.9847    1.2268   22.8230 H   0  0  0  0  0  0  0  0  0  0  0  0
  1  2  1  0
  2  3  1  0
  3  4  1  0
  4  5  1  0
  3  6  1  0
  6  7  2  0
  6  8  1  0
  8  9  1  0
  9 10  1  0
 10 11  1  0
 11 12  1  0
 12 13  1  0
 13 14  2  0
 13 15  1  0
 15 16  1  0
 16 17  1  0
 17 18  2  0
 18 19  1  0
 19 20  2  0
 20 21  1  0
 21 22  2  0
 12 23  1  0
 23 24  1  0
 24  9  1  0
 22 17  1  0
  1 25  1  0
  1 26  1  0
  1 27  1  0
  2 28  1  0
  2 29  1  0
  3 30  1  0
  4 31  1  0
  4 32  1  0
  5 33  1  0
  5 34  1  0
  5 35  1  0
  8 36  1  0
  9 37  1  0
 10 38  1  0
 10 39  1  0
 11 40  1  0
 11 41  1  0
 15 42  1  0
 15 43  1  0
 16 44  1  0
 16 45  1  0
 18 46  1  0
 19 47  1  0
 20 48  1  0
 22 49  1  0
 23 50  1  0
 23 51  1  0
 24 52  1  0
 24 53  1  0
M  END
>  <Energy>  (778) 
75.158275776442437

>  <compound_id>  (778) 
5749

>  <target_id>  (778) 
1

>  <reference_id>  (778) 
27

>  <inspiration_ids>  (778) 
[44, 27]

>  <energy_score>  (778) 
54.8360679191685

>  <distance_score>  (778) 
7.325279691318668

>  <path>  (778) 
/opt/xchem-fragalysis-2/maxwin/BulkDock/SCRATCH/511018/C5749-P27/C5749-P27.minimised.mol

>  <scratch_subdir>  (778) 
/opt/xchem-fragalysis-2/maxwin/BulkDock/SCRATCH/511018/C5749-P27

>  <fragmenstein_runtime>  (778) 
17.214603900909424

>  <fragmenstein_outcome>  (778) 
too moved

>  <fragmenstein_mode>  (778) 
expansion

>  <fragmenstein_error>  (778) 


$$$$
C5750-P44
     RDKit          3D

 59 60  0  0  0  0  0  0  0  0999 V2000
   15.8749   -0.1940   19.7831 C   0  0  0  0  0  0  0  0  0  0  0  0
   15.4240    0.4213   21.0991 C   0  0  0  0  0  0  0  0  0  0  0  0
   14.4337   -0.4016   21.9689 C   0  0  0  0  0  0  0  0  0  0  0  0
   14.8475   -1.8729   22.1378 C   0  0  0  0  0  0  0  0  0  0  0  0
   14.2498   -2.8242   21.1003 C   0  0  0  0  0  0  0  0  0  0  0  0
   14.2257    0.3171   23.3556 C   0  0  0  0  0  0  0  0  0  0  0  0
   15.0878    1.0494   23.7518 O   0  0  0  0  0  0  0  0  0  0  0  0
   12.9517   -0.0346   23.9334 N   0  0  0  0  0  0  0  0  0  0  0  0
   12.2780    0.4565   25.1164 C   0  0  0  0  0  0  0  0  0  0  0  0
   11.0593    1.3137   24.8339 C   0  0  0  0  0  0  0  0  0  0  0  0
   10.4493    1.7438   26.1997 C   0  0  0  0  0  0  0  0  0  0  0  0
    9.6924    0.7810   27.1388 N   0  0  0  0  0  0  0  0  0  0  0  0
    8.4730    0.3349   26.5154 C   0  0  0  0  0  0  0  0  0  0  0  0
    8.2562   -0.6226   25.8235 O   0  0  0  0  0  0  0  0  0  0  0  0
    7.3089    1.2698   26.9649 C   0  0  0  0  0  0  0  0  0  0  0  0
    5.9020    0.6071   26.8922 C   0  0  0  0  0  0  0  0  0  0  0  0
    4.7582    1.5229   27.1445 N   0  0  0  0  0  0  0  0  0  0  0  0
    4.7403    2.0568   28.5159 C   0  0  0  0  0  0  0  0  0  0  0  0
    3.3484    2.4813   29.0207 C   0  0  0  0  0  0  0  0  0  0  0  0
    2.4696    2.9874   27.8892 C   0  0  0  0  0  0  0  0  0  0  0  0
    2.3358    1.9267   26.8000 C   0  0  0  0  0  0  0  0  0  0  0  0
    3.4753    0.8937   26.8027 C   0  0  0  0  0  0  0  0  0  0  0  0
   11.0627    0.1282   27.2173 C   0  0  0  0  0  0  0  0  0  0  0  0
   11.7290   -0.6112   26.0312 C   0  0  0  0  0  0  0  0  0  0  0  0
   16.5227   -1.0591   19.9549 H   0  0  0  0  0  0  0  0  0  0  0  0
   16.4545    0.5367   19.2092 H   0  0  0  0  0  0  0  0  0  0  0  0
   15.0397   -0.5148   19.1672 H   0  0  0  0  0  0  0  0  0  0  0  0
   14.9630    1.3954   20.8889 H   0  0  0  0  0  0  0  0  0  0  0  0
   16.3298    0.6381   21.6797 H   0  0  0  0  0  0  0  0  0  0  0  0
   13.4781   -0.3783   21.4542 H   0  0  0  0  0  0  0  0  0  0  0  0
   14.5477   -2.2371   23.1283 H   0  0  0  0  0  0  0  0  0  0  0  0
   15.9409   -1.9555   22.1144 H   0  0  0  0  0  0  0  0  0  0  0  0
   14.3701   -2.4672   20.0767 H   0  0  0  0  0  0  0  0  0  0  0  0
   14.7379   -3.8020   21.1737 H   0  0  0  0  0  0  0  0  0  0  0  0
   13.1875   -2.9837   21.3019 H   0  0  0  0  0  0  0  0  0  0  0  0
   12.4382   -0.6248   23.2746 H   0  0  0  0  0  0  0  0  0  0  0  0
   13.0216    1.0572   25.6565 H   0  0  0  0  0  0  0  0  0  0  0  0
   10.3138    0.7811   24.2334 H   0  0  0  0  0  0  0  0  0  0  0  0
   11.3515    2.2048   24.2657 H   0  0  0  0  0  0  0  0  0  0  0  0
   11.1479    2.3739   26.7774 H   0  0  0  0  0  0  0  0  0  0  0  0
    9.6705    2.4694   25.9177 H   0  0  0  0  0  0  0  0  0  0  0  0
    7.5018    1.6005   27.9920 H   0  0  0  0  0  0  0  0  0  0  0  0
    7.3288    2.1513   26.3139 H   0  0  0  0  0  0  0  0  0  0  0  0
    5.8673   -0.2474   27.5807 H   0  0  0  0  0  0  0  0  0  0  0  0
    5.7897    0.1910   25.8835 H   0  0  0  0  0  0  0  0  0  0  0  0
    5.4040    2.9292   28.5461 H   0  0  0  0  0  0  0  0  0  0  0  0
    5.1418    1.3272   29.2311 H   0  0  0  0  0  0  0  0  0  0  0  0
    2.8578    1.6237   29.4991 H   0  0  0  0  0  0  0  0  0  0  0  0
    3.4564    3.2539   29.7904 H   0  0  0  0  0  0  0  0  0  0  0  0
    2.9177    3.8935   27.4624 H   0  0  0  0  0  0  0  0  0  0  0  0
    1.4802    3.2721   28.2637 H   0  0  0  0  0  0  0  0  0  0  0  0
    2.2903    2.4323   25.8277 H   0  0  0  0  0  0  0  0  0  0  0  0
    1.3844    1.3963   26.9268 H   0  0  0  0  0  0  0  0  0  0  0  0
    3.2472    0.0806   27.5044 H   0  0  0  0  0  0  0  0  0  0  0  0
    3.5210    0.4434   25.8037 H   0  0  0  0  0  0  0  0  0  0  0  0
   10.8456   -0.6891   27.9231 H   0  0  0  0  0  0  0  0  0  0  0  0
   11.7742    0.7445   27.7932 H   0  0  0  0  0  0  0  0  0  0  0  0
   12.5433   -1.2465   26.3985 H   0  0  0  0  0  0  0  0  0  0  0  0
   11.0109   -1.2638   25.5206 H   0  0  0  0  0  0  0  0  0  0  0  0
  1  2  1  0
  2  3  1  0
  3  4  1  0
  4  5  1  0
  3  6  1  0
  6  7  2  0
  6  8  1  0
  8  9  1  0
  9 10  1  0
 10 11  1  0
 11 12  1  0
 12 13  1  0
 13 14  2  0
 13 15  1  0
 15 16  1  0
 16 17  1  0
 17 18  1  0
 18 19  1  0
 19 20  1  0
 20 21  1  0
 21 22  1  0
 12 23  1  0
 23 24  1  0
 24  9  1  0
 22 17  1  0
  1 25  1  0
  1 26  1  0
  1 27  1  0
  2 28  1  0
  2 29  1  0
  3 30  1  0
  4 31  1  0
  4 32  1  0
  5 33  1  0
  5 34  1  0
  5 35  1  0
  8 36  1  0
  9 37  1  0
 10 38  1  0
 10 39  1  0
 11 40  1  0
 11 41  1  0
 15 42  1  0
 15 43  1  0
 16 44  1  0
 16 45  1  0
 18 46  1  0
 18 47  1  0
 19 48  1  0
 19 49  1  0
 20 50  1  0
 20 51  1  0
 21 52  1  0
 21 53  1  0
 22 54  1  0
 22 55  1  0
 23 56  1  0
 23 57  1  0
 24 58  1  0
 24 59  1  0
M  END
>  <Energy>  (779) 
65.23355697806781

>  <compound_id>  (779) 
5750

>  <target_id>  (779) 
1

>  <reference_id>  (779) 
44

>  <inspiration_ids>  (779) 
[44, 27]

>  <energy_score>  (779) 
33.21904873441187

>  <distance_score>  (779) 
7.441778906041983

>  <path>  (779) 
/opt/xchem-fragalysis-2/maxwin/BulkDock/SCRATCH/511018/C5750-P44/C5750-P44.minimised.mol

>  <scratch_subdir>  (779) 
/opt/xchem-fragalysis-2/maxwin/BulkDock/SCRATCH/511018/C5750-P44

>  <fragmenstein_runtime>  (779) 
16.403777599334717

>  <fragmenstein_outcome>  (779) 
too moved

>  <fragmenstein_mode>  (779) 
expansion

>  <fragmenstein_error>  (779) 


$$$$
C5750-P27
     RDKit          3D

 59 60  0  0  0  0  0  0  0  0999 V2000
   14.7647    0.8564   18.7600 C   0  0  0  0  0  0  0  0  0  0  0  0
   15.1413    0.9964   20.2335 C   0  0  0  0  0  0  0  0  0  0  0  0
   14.3255    0.0804   21.1709 C   0  0  0  0  0  0  0  0  0  0  0  0
   14.5731   -1.4290   20.9819 C   0  0  0  0  0  0  0  0  0  0  0  0
   15.9955   -1.8417   20.6499 C   0  0  0  0  0  0  0  0  0  0  0  0
   14.3541    0.5726   22.6591 C   0  0  0  0  0  0  0  0  0  0  0  0
   15.2927    1.2094   23.0460 O   0  0  0  0  0  0  0  0  0  0  0  0
   13.1128    0.2204   23.3214 N   0  0  0  0  0  0  0  0  0  0  0  0
   12.5811    0.6077   24.6168 C   0  0  0  0  0  0  0  0  0  0  0  0
   11.2787    1.3821   24.4975 C   0  0  0  0  0  0  0  0  0  0  0  0
   10.6959    1.6545   25.9131 C   0  0  0  0  0  0  0  0  0  0  0  0
   10.0855    0.4949   26.7143 N   0  0  0  0  0  0  0  0  0  0  0  0
    9.2003    1.0144   27.7545 C   0  0  0  0  0  0  0  0  0  0  0  0
    9.4297    1.3118   28.8993 O   0  0  0  0  0  0  0  0  0  0  0  0
    7.7417    1.0646   27.2470 C   0  0  0  0  0  0  0  0  0  0  0  0
    6.7015    1.6722   28.2253 C   0  0  0  0  0  0  0  0  0  0  0  0
    5.3188    1.7792   27.6767 N   0  0  0  0  0  0  0  0  0  0  0  0
    4.5402    2.7815   28.4389 C   0  0  0  0  0  0  0  0  0  0  0  0
    3.0121    2.6168   28.3707 C   0  0  0  0  0  0  0  0  0  0  0  0
    2.5789    1.9472   27.0789 C   0  0  0  0  0  0  0  0  0  0  0  0
    3.2701    0.5921   26.9241 C   0  0  0  0  0  0  0  0  0  0  0  0
    4.6130    0.4896   27.6637 C   0  0  0  0  0  0  0  0  0  0  0  0
   11.5403    0.0608   26.7806 C   0  0  0  0  0  0  0  0  0  0  0  0
   12.2315   -0.5429   25.5347 C   0  0  0  0  0  0  0  0  0  0  0  0
   15.4023    1.5040   18.1495 H   0  0  0  0  0  0  0  0  0  0  0  0
   13.7276    1.1581   18.5908 H   0  0  0  0  0  0  0  0  0  0  0  0
   14.8848   -0.1688   18.4007 H   0  0  0  0  0  0  0  0  0  0  0  0
   14.9758    2.0431   20.5203 H   0  0  0  0  0  0  0  0  0  0  0  0
   16.2154    0.8217   20.3625 H   0  0  0  0  0  0  0  0  0  0  0  0
   13.2927    0.2511   20.8800 H   0  0  0  0  0  0  0  0  0  0  0  0
   14.2667   -1.9696   21.8850 H   0  0  0  0  0  0  0  0  0  0  0  0
   13.9428   -1.8005   20.1687 H   0  0  0  0  0  0  0  0  0  0  0  0
   16.6953   -1.4697   21.4050 H   0  0  0  0  0  0  0  0  0  0  0  0
   16.0727   -2.9340   20.6320 H   0  0  0  0  0  0  0  0  0  0  0  0
   16.3160   -1.4791   19.6700 H   0  0  0  0  0  0  0  0  0  0  0  0
   12.5769   -0.4061   22.7156 H   0  0  0  0  0  0  0  0  0  0  0  0
   13.3389    1.2424   25.0932 H   0  0  0  0  0  0  0  0  0  0  0  0
   10.5457    0.8282   23.8984 H   0  0  0  0  0  0  0  0  0  0  0  0
   11.4561    2.3344   23.9835 H   0  0  0  0  0  0  0  0  0  0  0  0
   11.3299    2.3176   26.5276 H   0  0  0  0  0  0  0  0  0  0  0  0
    9.8311    2.3064   25.7141 H   0  0  0  0  0  0  0  0  0  0  0  0
    7.4631    0.0229   27.0685 H   0  0  0  0  0  0  0  0  0  0  0  0
    7.7254    1.6390   26.3176 H   0  0  0  0  0  0  0  0  0  0  0  0
    7.0607    2.6819   28.4667 H   0  0  0  0  0  0  0  0  0  0  0  0
    6.6989    1.1133   29.1701 H   0  0  0  0  0  0  0  0  0  0  0  0
    4.8050    3.7712   28.0471 H   0  0  0  0  0  0  0  0  0  0  0  0
    4.8235    2.7762   29.4999 H   0  0  0  0  0  0  0  0  0  0  0  0
    2.6757    2.0061   29.2184 H   0  0  0  0  0  0  0  0  0  0  0  0
    2.5293    3.5952   28.4720 H   0  0  0  0  0  0  0  0  0  0  0  0
    2.8428    2.5909   26.2306 H   0  0  0  0  0  0  0  0  0  0  0  0
    1.4910    1.8211   27.0524 H   0  0  0  0  0  0  0  0  0  0  0  0
    3.4242    0.3921   25.8585 H   0  0  0  0  0  0  0  0  0  0  0  0
    2.6093   -0.2010   27.2952 H   0  0  0  0  0  0  0  0  0  0  0  0
    4.4449    0.1376   28.6903 H   0  0  0  0  0  0  0  0  0  0  0  0
    5.2106   -0.2804   27.1632 H   0  0  0  0  0  0  0  0  0  0  0  0
   11.4619   -0.7898   27.4763 H   0  0  0  0  0  0  0  0  0  0  0  0
   12.1821    0.7424   27.3657 H   0  0  0  0  0  0  0  0  0  0  0  0
   11.5708   -1.2680   25.0456 H   0  0  0  0  0  0  0  0  0  0  0  0
   13.1413   -1.0781   25.8296 H   0  0  0  0  0  0  0  0  0  0  0  0
  1  2  1  0
  2  3  1  0
  3  4  1  0
  4  5  1  0
  3  6  1  0
  6  7  2  0
  6  8  1  0
  8  9  1  0
  9 10  1  0
 10 11  1  0
 11 12  1  0
 12 13  1  0
 13 14  2  0
 13 15  1  0
 15 16  1  0
 16 17  1  0
 17 18  1  0
 18 19  1  0
 19 20  1  0
 20 21  1  0
 21 22  1  0
 12 23  1  0
 23 24  1  0
 24  9  1  0
 22 17  1  0
  1 25  1  0
  1 26  1  0
  1 27  1  0
  2 28  1  0
  2 29  1  0
  3 30  1  0
  4 31  1  0
  4 32  1  0
  5 33  1  0
  5 34  1  0
  5 35  1  0
  8 36  1  0
  9 37  1  0
 10 38  1  0
 10 39  1  0
 11 40  1  0
 11 41  1  0
 15 42  1  0
 15 43  1  0
 16 44  1  0
 16 45  1  0
 18 46  1  0
 18 47  1  0
 19 48  1  0
 19 49  1  0
 20 50  1  0
 20 51  1  0
 21 52  1  0
 21 53  1  0
 22 54  1  0
 22 55  1  0
 23 56  1  0
 23 57  1  0
 24 58  1  0
 24 59  1  0
M  END
>  <Energy>  (780) 
62.169511008550167

>  <compound_id>  (780) 
5750

>  <target_id>  (780) 
1

>  <reference_id>  (780) 
27

>  <inspiration_ids>  (780) 
[44, 27]

>  <energy_score>  (780) 
30.155002764894903

>  <distance_score>  (780) 
7.295251274057839

>  <path>  (780) 
/opt/xchem-fragalysis-2/maxwin/BulkDock/SCRATCH/511018/C5750-P27/C5750-P27.minimised.mol

>  <scratch_subdir>  (780) 
/opt/xchem-fragalysis-2/maxwin/BulkDock/SCRATCH/511018/C5750-P27

>  <fragmenstein_runtime>  (780) 
20.058601140975952

>  <fragmenstein_outcome>  (780) 
too moved

>  <fragmenstein_mode>  (780) 
expansion

>  <fragmenstein_error>  (780) 


$$$$
C5752-P115
     RDKit          3D

 34 36  0  0  0  0  0  0  0  0999 V2000
   -6.3638  -18.6252   22.2370 C   0  0  0  0  0  0  0  0  0  0  0  0
   -6.4882  -18.2613   20.8125 C   0  0  0  0  0  0  0  0  0  0  0  0
   -6.8105  -17.1125   20.2310 N   0  0  0  0  0  0  0  0  0  0  0  0
   -7.1300  -17.3172   18.7167 C   0  0  0  0  0  0  0  0  0  0  0  0
   -7.6995  -15.9221   17.5274 C   0  0  0  0  0  0  0  0  0  0  0  0
   -7.7114  -16.3321   16.4015 O   0  0  0  0  0  0  0  0  0  0  0  0
   -8.0070  -14.1477   17.9954 N   0  0  0  0  0  0  0  0  0  0  0  0
   -8.2423  -12.6506   16.9510 C   0  0  0  0  0  0  0  0  0  0  0  0
   -8.8475  -12.1126   15.1299 C   0  0  0  0  0  0  0  0  0  0  0  0
   -9.2475  -13.0566   14.2504 N   0  0  0  0  0  0  0  0  0  0  0  0
   -9.1322  -12.6462   12.9364 N   0  0  0  0  0  0  0  0  0  0  0  0
   -8.8027  -11.3924   12.8911 C   0  0  0  0  0  0  0  0  0  0  0  0
   -8.5894  -10.9283   14.1784 N   0  0  0  0  0  0  0  0  0  0  0  0
   -7.9012   -9.6166   14.1947 C   0  0  0  0  0  0  0  0  0  0  0  0
   -6.9123   -9.4010   13.0075 C   0  0  0  0  0  0  0  0  0  0  0  0
   -7.3261   -9.8326   11.6795 N   0  0  0  0  0  0  0  0  0  0  0  0
   -8.5980  -10.5556   11.6728 C   0  0  0  0  0  0  0  0  0  0  0  0
   -6.3031  -18.4733   18.6454 C   0  0  0  0  0  0  0  0  0  0  0  0
   -6.2560  -19.1676   19.8397 N   0  0  0  0  0  0  0  0  0  0  0  0
   -7.1475  -18.1527   22.8354 H   0  0  0  0  0  0  0  0  0  0  0  0
   -5.3827  -18.3450   22.6306 H   0  0  0  0  0  0  0  0  0  0  0  0
   -6.4739  -19.7075   22.3569 H   0  0  0  0  0  0  0  0  0  0  0  0
   -8.0329  -14.0616   19.0077 H   0  0  0  0  0  0  0  0  0  0  0  0
   -7.6148  -11.9156   17.4658 H   0  0  0  0  0  0  0  0  0  0  0  0
   -7.6760  -13.4194   16.4380 H   0  0  0  0  0  0  0  0  0  0  0  0
   -7.2733   -9.4685   15.0728 H   0  0  0  0  0  0  0  0  0  0  0  0
   -8.7054   -8.8788   14.2028 H   0  0  0  0  0  0  0  0  0  0  0  0
   -5.9953   -9.9605   13.2327 H   0  0  0  0  0  0  0  0  0  0  0  0
   -6.5959   -8.3527   12.9836 H   0  0  0  0  0  0  0  0  0  0  0  0
   -7.3897   -9.0539   11.0270 H   0  0  0  0  0  0  0  0  0  0  0  0
   -8.6259  -11.1940   10.7829 H   0  0  0  0  0  0  0  0  0  0  0  0
   -9.4383   -9.8654   11.5833 H   0  0  0  0  0  0  0  0  0  0  0  0
   -5.5840  -18.8572   17.9508 H   0  0  0  0  0  0  0  0  0  0  0  0
   -5.8142  -20.0650   19.9767 H   0  0  0  0  0  0  0  0  0  0  0  0
  1  2  1  0
  2  3  2  0
  3  4  1  0
  4  5  1  0
  5  6  2  0
  5  7  1  0
  7  8  1  0
  8  9  1  0
  9 10  2  0
 10 11  1  0
 11 12  2  0
 12 13  1  0
 13 14  1  0
 14 15  1  0
 15 16  1  0
 16 17  1  0
  4 18  2  0
 18 19  1  0
 19  2  1  0
 13  9  1  0
 17 12  1  0
  1 20  1  0
  1 21  1  0
  1 22  1  0
  7 23  1  0
  8 24  1  0
  8 25  1  0
 14 26  1  0
 14 27  1  0
 15 28  1  0
 15 29  1  0
 16 30  1  0
 17 31  1  0
 17 32  1  0
 18 33  1  0
 19 34  1  0
M  END
>  <Energy>  (781) 
382.47259996990738

>  <compound_id>  (781) 
5752

>  <target_id>  (781) 
1

>  <reference_id>  (781) 
115

>  <inspiration_ids>  (781) 
[115, 65]

>  <energy_score>  (781) 
327.6214368700633

>  <distance_score>  (781) 
13.369447668693809

>  <path>  (781) 
/opt/xchem-fragalysis-2/maxwin/BulkDock/SCRATCH/511018/C5752-P115/C5752-P115.minimised.mol

>  <scratch_subdir>  (781) 
/opt/xchem-fragalysis-2/maxwin/BulkDock/SCRATCH/511018/C5752-P115

>  <fragmenstein_runtime>  (781) 
17.620249271392822

>  <fragmenstein_outcome>  (781) 
too moved

>  <fragmenstein_mode>  (781) 
expansion

>  <fragmenstein_error>  (781) 


$$$$
C5752-P65
     RDKit          3D

 34 36  0  0  0  0  0  0  0  0999 V2000
   -6.9071  -18.5797   23.4006 C   0  0  0  0  0  0  0  0  0  0  0  0
   -7.3042  -18.1356   22.0903 C   0  0  0  0  0  0  0  0  0  0  0  0
   -8.1713  -17.1829   21.8735 N   0  0  0  0  0  0  0  0  0  0  0  0
   -8.0012  -16.3132   20.6662 C   0  0  0  0  0  0  0  0  0  0  0  0
   -8.8945  -15.0430   19.4264 C   0  0  0  0  0  0  0  0  0  0  0  0
   -9.8966  -15.3951   18.9051 O   0  0  0  0  0  0  0  0  0  0  0  0
   -7.8457  -13.4982   19.1627 N   0  0  0  0  0  0  0  0  0  0  0  0
   -7.9346  -12.1618   17.9414 C   0  0  0  0  0  0  0  0  0  0  0  0
   -6.8517  -10.6036   17.1383 C   0  0  0  0  0  0  0  0  0  0  0  0
   -7.2416   -9.2385   17.5328 N   0  0  0  0  0  0  0  0  0  0  0  0
   -6.4399   -8.1970   17.0563 N   0  0  0  0  0  0  0  0  0  0  0  0
   -5.5665   -8.7305   16.2401 C   0  0  0  0  0  0  0  0  0  0  0  0
   -6.2527   -9.8829   15.8137 N   0  0  0  0  0  0  0  0  0  0  0  0
   -7.0060   -9.3679   14.5723 C   0  0  0  0  0  0  0  0  0  0  0  0
   -5.9886   -8.9451   13.4779 C   0  0  0  0  0  0  0  0  0  0  0  0
   -4.6705   -8.4953   13.9482 N   0  0  0  0  0  0  0  0  0  0  0  0
   -4.6942   -7.9350   15.3040 C   0  0  0  0  0  0  0  0  0  0  0  0
   -6.8615  -17.3438   20.1433 C   0  0  0  0  0  0  0  0  0  0  0  0
   -6.5694  -18.3695   21.0089 N   0  0  0  0  0  0  0  0  0  0  0  0
   -5.9066  -19.0180   23.4049 H   0  0  0  0  0  0  0  0  0  0  0  0
   -7.6927  -19.2724   23.6039 H   0  0  0  0  0  0  0  0  0  0  0  0
   -6.9386  -17.7877   24.1536 H   0  0  0  0  0  0  0  0  0  0  0  0
   -7.1040  -13.4449   19.8112 H   0  0  0  0  0  0  0  0  0  0  0  0
   -6.8494  -12.3657   18.0725 H   0  0  0  0  0  0  0  0  0  0  0  0
   -8.2126  -12.6806   17.0441 H   0  0  0  0  0  0  0  0  0  0  0  0
   -7.5725   -8.4881   14.9076 H   0  0  0  0  0  0  0  0  0  0  0  0
   -7.7587  -10.0708   14.2038 H   0  0  0  0  0  0  0  0  0  0  0  0
   -5.8173   -9.8027   12.8171 H   0  0  0  0  0  0  0  0  0  0  0  0
   -6.4316   -8.1644   12.8581 H   0  0  0  0  0  0  0  0  0  0  0  0
   -4.2641   -7.8253   13.2980 H   0  0  0  0  0  0  0  0  0  0  0  0
   -3.6744   -7.9104   15.7009 H   0  0  0  0  0  0  0  0  0  0  0  0
   -5.0600   -6.9021   15.2626 H   0  0  0  0  0  0  0  0  0  0  0  0
   -6.5056  -17.5436   19.1439 H   0  0  0  0  0  0  0  0  0  0  0  0
   -5.8369  -19.0556   20.8964 H   0  0  0  0  0  0  0  0  0  0  0  0
  1  2  1  0
  2  3  2  0
  3  4  1  0
  4  5  1  0
  5  6  2  0
  5  7  1  0
  7  8  1  0
  8  9  1  0
  9 10  2  0
 10 11  1  0
 11 12  2  0
 12 13  1  0
 13 14  1  0
 14 15  1  0
 15 16  1  0
 16 17  1  0
  4 18  2  0
 18 19  1  0
 19  2  1  0
 13  9  1  0
 17 12  1  0
  1 20  1  0
  1 21  1  0
  1 22  1  0
  7 23  1  0
  8 24  1  0
  8 25  1  0
 14 26  1  0
 14 27  1  0
 15 28  1  0
 15 29  1  0
 16 30  1  0
 17 31  1  0
 17 32  1  0
 18 33  1  0
 19 34  1  0
M  END
>  <Energy>  (782) 
522.41453381041993

>  <compound_id>  (782) 
5752

>  <target_id>  (782) 
1

>  <reference_id>  (782) 
65

>  <inspiration_ids>  (782) 
[115, 65]

>  <energy_score>  (782) 
467.56337071058056

>  <distance_score>  (782) 
12.799948282873068

>  <path>  (782) 
/opt/xchem-fragalysis-2/maxwin/BulkDock/SCRATCH/511018/C5752-P65/C5752-P65.minimised.mol

>  <scratch_subdir>  (782) 
/opt/xchem-fragalysis-2/maxwin/BulkDock/SCRATCH/511018/C5752-P65

>  <fragmenstein_runtime>  (782) 
22.977992296218872

>  <fragmenstein_outcome>  (782) 
too moved

>  <fragmenstein_mode>  (782) 
expansion

>  <fragmenstein_error>  (782) 


$$$$
C5753-P115
     RDKit          3D

 44 46  0  0  0  0  0  0  0  0999 V2000
   -9.5430  -23.2765   18.7726 C   0  0  0  0  0  0  0  0  0  0  0  0
   -9.5931  -22.2191   19.8786 C   0  0  0  0  0  0  0  0  0  0  0  0
  -11.0273  -22.0457   20.3823 C   0  0  0  0  0  0  0  0  0  0  0  0
   -8.5924  -22.5341   21.0246 C   0  0  0  0  0  0  0  0  0  0  0  0
   -7.3796  -21.7545   20.8715 N   0  0  0  0  0  0  0  0  0  0  0  0
   -6.4115  -22.0415   19.9548 C   0  0  0  0  0  0  0  0  0  0  0  0
   -5.8860  -20.9364   19.4753 N   0  0  0  0  0  0  0  0  0  0  0  0
   -6.4395  -19.9170   20.2281 C   0  0  0  0  0  0  0  0  0  0  0  0
   -6.1866  -18.1837   19.9358 S   0  0  0  0  0  0  0  0  0  0  0  0
   -6.9102  -17.6647   21.0641 O   0  0  0  0  0  0  0  0  0  0  0  0
   -4.7503  -18.1206   19.7776 O   0  0  0  0  0  0  0  0  0  0  0  0
   -6.9174  -17.6901   18.4294 N   0  0  0  0  0  0  0  0  0  0  0  0
   -7.9796  -16.3776   17.7792 C   0  0  0  0  0  0  0  0  0  0  0  0
   -7.7040  -14.7330   17.5317 C   0  0  0  0  0  0  0  0  0  0  0  0
   -8.1080  -13.6373   18.4532 N   0  0  0  0  0  0  0  0  0  0  0  0
   -8.2225  -12.4226   17.8466 N   0  0  0  0  0  0  0  0  0  0  0  0
   -8.1639  -12.6523   16.5546 C   0  0  0  0  0  0  0  0  0  0  0  0
   -7.3263  -14.0343   16.3483 N   0  0  0  0  0  0  0  0  0  0  0  0
   -7.7736  -14.5602   14.8373 C   0  0  0  0  0  0  0  0  0  0  0  0
   -7.8380  -13.2197   13.3893 C   0  0  0  0  0  0  0  0  0  0  0  0
   -9.0580  -12.5943   13.6417 N   0  0  0  0  0  0  0  0  0  0  0  0
   -9.0232  -11.9562   15.0033 C   0  0  0  0  0  0  0  0  0  0  0  0
   -7.2415  -20.4490   21.2256 C   0  0  0  0  0  0  0  0  0  0  0  0
   -9.8343  -24.2639   19.1437 H   0  0  0  0  0  0  0  0  0  0  0  0
  -10.2235  -23.0121   17.9559 H   0  0  0  0  0  0  0  0  0  0  0  0
   -8.5369  -23.3574   18.3498 H   0  0  0  0  0  0  0  0  0  0  0  0
   -9.3191  -21.2670   19.4075 H   0  0  0  0  0  0  0  0  0  0  0  0
  -11.6575  -21.6262   19.5900 H   0  0  0  0  0  0  0  0  0  0  0  0
  -11.0676  -21.3616   21.2357 H   0  0  0  0  0  0  0  0  0  0  0  0
  -11.4824  -22.9910   20.6808 H   0  0  0  0  0  0  0  0  0  0  0  0
   -8.2627  -23.5768   21.0189 H   0  0  0  0  0  0  0  0  0  0  0  0
   -9.0019  -22.2942   22.0115 H   0  0  0  0  0  0  0  0  0  0  0  0
   -6.2135  -23.0420   19.5905 H   0  0  0  0  0  0  0  0  0  0  0  0
   -7.2047  -18.5516   17.9740 H   0  0  0  0  0  0  0  0  0  0  0  0
   -8.3397  -16.8323   16.8727 H   0  0  0  0  0  0  0  0  0  0  0  0
   -8.6907  -16.1299   18.5500 H   0  0  0  0  0  0  0  0  0  0  0  0
   -7.4011  -15.6053   14.8422 H   0  0  0  0  0  0  0  0  0  0  0  0
   -8.8654  -14.6724   14.7241 H   0  0  0  0  0  0  0  0  0  0  0  0
   -7.3694  -12.2121   13.3535 H   0  0  0  0  0  0  0  0  0  0  0  0
   -6.8735  -13.3289   12.8230 H   0  0  0  0  0  0  0  0  0  0  0  0
   -9.2599  -11.8734   12.9450 H   0  0  0  0  0  0  0  0  0  0  0  0
  -10.0626  -11.9823   15.2688 H   0  0  0  0  0  0  0  0  0  0  0  0
   -8.6838  -10.9374   14.7739 H   0  0  0  0  0  0  0  0  0  0  0  0
   -7.8196  -19.9672   21.9976 H   0  0  0  0  0  0  0  0  0  0  0  0
  1  2  1  0
  2  3  1  0
  2  4  1  0
  4  5  1  0
  5  6  1  0
  6  7  2  0
  7  8  1  0
  8  9  1  0
  9 10  2  0
  9 11  2  0
  9 12  1  0
 12 13  1  0
 13 14  1  0
 14 15  2  0
 15 16  1  0
 16 17  2  0
 17 18  1  0
 18 19  1  0
 19 20  1  0
 20 21  1  0
 21 22  1  0
  8 23  2  0
 23  5  1  0
 18 14  1  0
 22 17  1  0
  1 24  1  0
  1 25  1  0
  1 26  1  0
  2 27  1  0
  3 28  1  0
  3 29  1  0
  3 30  1  0
  4 31  1  0
  4 32  1  0
  6 33  1  0
 12 34  1  0
 13 35  1  0
 13 36  1  0
 19 37  1  0
 19 38  1  0
 20 39  1  0
 20 40  1  0
 21 41  1  0
 22 42  1  0
 22 43  1  0
 23 44  1  0
M  END
>  <Energy>  (783) 
341.09109266510251

>  <compound_id>  (783) 
5753

>  <target_id>  (783) 
1

>  <reference_id>  (783) 
115

>  <inspiration_ids>  (783) 
[115, 65]

>  <energy_score>  (783) 
266.68764382125653

>  <distance_score>  (783) 
14.657659252371396

>  <path>  (783) 
/opt/xchem-fragalysis-2/maxwin/BulkDock/SCRATCH/511018/C5753-P115/C5753-P115.minimised.mol

>  <scratch_subdir>  (783) 
/opt/xchem-fragalysis-2/maxwin/BulkDock/SCRATCH/511018/C5753-P115

>  <fragmenstein_runtime>  (783) 
22.573845148086548

>  <fragmenstein_outcome>  (783) 
too moved

>  <fragmenstein_mode>  (783) 
expansion

>  <fragmenstein_error>  (783) 


$$$$
C5753-P65
     RDKit          3D

 44 46  0  0  0  0  0  0  0  0999 V2000
  -12.1585  -21.5436   18.2057 C   0  0  0  0  0  0  0  0  0  0  0  0
  -13.1152  -21.8817   17.0603 C   0  0  0  0  0  0  0  0  0  0  0  0
  -14.1687  -22.8734   17.5648 C   0  0  0  0  0  0  0  0  0  0  0  0
  -13.8085  -20.6230   16.5037 C   0  0  0  0  0  0  0  0  0  0  0  0
  -13.0506  -19.7784   15.5969 N   0  0  0  0  0  0  0  0  0  0  0  0
  -11.7495  -19.8880   15.2104 C   0  0  0  0  0  0  0  0  0  0  0  0
  -11.4408  -19.0012   14.2805 N   0  0  0  0  0  0  0  0  0  0  0  0
  -12.5792  -18.2348   14.0633 C   0  0  0  0  0  0  0  0  0  0  0  0
  -12.7242  -16.7346   13.0162 S   0  0  0  0  0  0  0  0  0  0  0  0
  -13.3531  -17.2357   11.8100 O   0  0  0  0  0  0  0  0  0  0  0  0
  -13.4550  -15.8415   13.9007 O   0  0  0  0  0  0  0  0  0  0  0  0
  -11.3059  -15.7920   12.4872 N   0  0  0  0  0  0  0  0  0  0  0  0
  -11.5931  -14.6490   11.4227 C   0  0  0  0  0  0  0  0  0  0  0  0
  -10.5441  -13.5077   11.3343 C   0  0  0  0  0  0  0  0  0  0  0  0
   -9.6170  -13.2324   12.2393 N   0  0  0  0  0  0  0  0  0  0  0  0
   -8.9735  -12.0509   11.9224 N   0  0  0  0  0  0  0  0  0  0  0  0
   -9.4921  -11.6031   10.8070 C   0  0  0  0  0  0  0  0  0  0  0  0
  -10.4648  -12.4868   10.3900 N   0  0  0  0  0  0  0  0  0  0  0  0
  -11.2406  -12.2285    9.1947 C   0  0  0  0  0  0  0  0  0  0  0  0
  -10.5834  -11.1566    8.2934 C   0  0  0  0  0  0  0  0  0  0  0  0
  -10.1503   -9.9962    9.0706 N   0  0  0  0  0  0  0  0  0  0  0  0
   -9.1109  -10.3827   10.0394 C   0  0  0  0  0  0  0  0  0  0  0  0
  -13.5977  -18.7441   14.8655 C   0  0  0  0  0  0  0  0  0  0  0  0
  -12.6921  -21.0784   19.0418 H   0  0  0  0  0  0  0  0  0  0  0  0
  -11.3707  -20.8568   17.8862 H   0  0  0  0  0  0  0  0  0  0  0  0
  -11.6714  -22.4496   18.5825 H   0  0  0  0  0  0  0  0  0  0  0  0
  -12.5505  -22.3798   16.2630 H   0  0  0  0  0  0  0  0  0  0  0  0
  -14.7799  -22.4341   18.3607 H   0  0  0  0  0  0  0  0  0  0  0  0
  -13.6945  -23.7779   17.9605 H   0  0  0  0  0  0  0  0  0  0  0  0
  -14.8371  -23.1777   16.7523 H   0  0  0  0  0  0  0  0  0  0  0  0
  -14.6969  -20.9242   15.9330 H   0  0  0  0  0  0  0  0  0  0  0  0
  -14.1500  -19.9805   17.3231 H   0  0  0  0  0  0  0  0  0  0  0  0
  -11.0632  -20.6292   15.5976 H   0  0  0  0  0  0  0  0  0  0  0  0
  -10.8780  -15.3474   13.3035 H   0  0  0  0  0  0  0  0  0  0  0  0
  -12.5543  -14.1932   11.6832 H   0  0  0  0  0  0  0  0  0  0  0  0
  -11.6730  -15.1404   10.4476 H   0  0  0  0  0  0  0  0  0  0  0  0
  -11.3459  -13.1728    8.6513 H   0  0  0  0  0  0  0  0  0  0  0  0
  -12.2291  -11.8959    9.5311 H   0  0  0  0  0  0  0  0  0  0  0  0
   -9.7305  -11.5925    7.7582 H   0  0  0  0  0  0  0  0  0  0  0  0
  -11.3075  -10.8386    7.5356 H   0  0  0  0  0  0  0  0  0  0  0  0
   -9.7806   -9.2656    8.4667 H   0  0  0  0  0  0  0  0  0  0  0  0
   -8.1676  -10.5747    9.5151 H   0  0  0  0  0  0  0  0  0  0  0  0
   -8.9304   -9.5668   10.7402 H   0  0  0  0  0  0  0  0  0  0  0  0
  -14.6308  -18.4436   14.9716 H   0  0  0  0  0  0  0  0  0  0  0  0
  1  2  1  0
  2  3  1  0
  2  4  1  0
  4  5  1  0
  5  6  1  0
  6  7  2  0
  7  8  1  0
  8  9  1  0
  9 10  2  0
  9 11  2  0
  9 12  1  0
 12 13  1  0
 13 14  1  0
 14 15  2  0
 15 16  1  0
 16 17  2  0
 17 18  1  0
 18 19  1  0
 19 20  1  0
 20 21  1  0
 21 22  1  0
  8 23  2  0
 23  5  1  0
 18 14  1  0
 22 17  1  0
  1 24  1  0
  1 25  1  0
  1 26  1  0
  2 27  1  0
  3 28  1  0
  3 29  1  0
  3 30  1  0
  4 31  1  0
  4 32  1  0
  6 33  1  0
 12 34  1  0
 13 35  1  0
 13 36  1  0
 19 37  1  0
 19 38  1  0
 20 39  1  0
 20 40  1  0
 21 41  1  0
 22 42  1  0
 22 43  1  0
 23 44  1  0
M  END
>  <Energy>  (784) 
39.942339808659106

>  <compound_id>  (784) 
5753

>  <target_id>  (784) 
1

>  <reference_id>  (784) 
65

>  <inspiration_ids>  (784) 
[115, 65]

>  <energy_score>  (784) 
-34.46110903518877

>  <distance_score>  (784) 
14.802264273555796

>  <path>  (784) 
/opt/xchem-fragalysis-2/maxwin/BulkDock/SCRATCH/511018/C5753-P65/C5753-P65.minimised.mol

>  <scratch_subdir>  (784) 
/opt/xchem-fragalysis-2/maxwin/BulkDock/SCRATCH/511018/C5753-P65

>  <fragmenstein_runtime>  (784) 
31.05058264732361

>  <fragmenstein_outcome>  (784) 
too moved

>  <fragmenstein_mode>  (784) 
expansion

>  <fragmenstein_error>  (784) 


$$$$
C5754-P115
     RDKit          3D

 41 43  0  0  0  0  0  0  0  0999 V2000
   -4.5432  -15.2306   13.9556 C   0  0  0  0  0  0  0  0  0  0  0  0
   -4.9629  -14.8183   15.3545 C   0  0  0  0  0  0  0  0  0  0  0  0
   -3.8946  -14.9231   16.3276 N   0  0  0  0  0  0  0  0  0  0  0  0
   -3.6189  -16.0439   17.0798 C   0  0  0  0  0  0  0  0  0  0  0  0
   -2.6079  -15.6813   17.9281 C   0  0  0  0  0  0  0  0  0  0  0  0
   -2.2567  -14.3730   17.7011 N   0  0  0  0  0  0  0  0  0  0  0  0
   -2.9689  -13.9474   16.6539 C   0  0  0  0  0  0  0  0  0  0  0  0
   -2.5753  -12.6729   15.8256 C   0  0  0  0  0  0  0  0  0  0  0  0
   -1.3448  -13.0679   14.9820 C   0  0  0  0  0  0  0  0  0  0  0  0
   -3.6096  -11.9478   14.9949 N   0  0  0  0  0  0  0  0  0  0  0  0
   -3.0353  -10.7831   14.2282 C   0  0  0  0  0  0  0  0  0  0  0  0
   -3.9735   -9.7584   13.6156 C   0  0  0  0  0  0  0  0  0  0  0  0
   -5.2638   -9.8589   13.3465 N   0  0  0  0  0  0  0  0  0  0  0  0
   -5.6914   -8.6856   12.7499 N   0  0  0  0  0  0  0  0  0  0  0  0
   -4.6576   -7.8839   12.6591 C   0  0  0  0  0  0  0  0  0  0  0  0
   -3.5625   -8.5160   13.1760 N   0  0  0  0  0  0  0  0  0  0  0  0
   -2.2431   -7.9210   13.1641 C   0  0  0  0  0  0  0  0  0  0  0  0
   -2.2972   -6.4075   12.9022 C   0  0  0  0  0  0  0  0  0  0  0  0
   -3.2329   -6.0222   11.8431 N   0  0  0  0  0  0  0  0  0  0  0  0
   -4.6011   -6.4955   12.1473 C   0  0  0  0  0  0  0  0  0  0  0  0
   -4.1380  -16.2475   13.9445 H   0  0  0  0  0  0  0  0  0  0  0  0
   -3.7744  -14.5644   13.5549 H   0  0  0  0  0  0  0  0  0  0  0  0
   -5.4025  -15.1979   13.2786 H   0  0  0  0  0  0  0  0  0  0  0  0
   -5.3490  -13.7961   15.3711 H   0  0  0  0  0  0  0  0  0  0  0  0
   -5.7835  -15.4507   15.7047 H   0  0  0  0  0  0  0  0  0  0  0  0
   -4.1532  -16.9722   16.9738 H   0  0  0  0  0  0  0  0  0  0  0  0
   -2.1303  -16.2756   18.6953 H   0  0  0  0  0  0  0  0  0  0  0  0
   -2.2354  -11.9525   16.5832 H   0  0  0  0  0  0  0  0  0  0  0  0
   -0.8190  -12.1924   14.5884 H   0  0  0  0  0  0  0  0  0  0  0  0
   -1.6279  -13.7078   14.1396 H   0  0  0  0  0  0  0  0  0  0  0  0
   -0.6132  -13.6224   15.5818 H   0  0  0  0  0  0  0  0  0  0  0  0
   -4.3224  -11.5815   15.6277 H   0  0  0  0  0  0  0  0  0  0  0  0
   -2.4381  -11.1831   13.4008 H   0  0  0  0  0  0  0  0  0  0  0  0
   -2.3648  -10.2413   14.9061 H   0  0  0  0  0  0  0  0  0  0  0  0
   -1.7716   -8.1146   14.1324 H   0  0  0  0  0  0  0  0  0  0  0  0
   -1.6719   -8.4339   12.3831 H   0  0  0  0  0  0  0  0  0  0  0  0
   -1.2932   -6.0503   12.6478 H   0  0  0  0  0  0  0  0  0  0  0  0
   -2.5818   -5.8866   13.8255 H   0  0  0  0  0  0  0  0  0  0  0  0
   -2.9556   -6.4173   10.9279 H   0  0  0  0  0  0  0  0  0  0  0  0
   -5.0655   -5.8381   12.8891 H   0  0  0  0  0  0  0  0  0  0  0  0
   -5.1934   -6.4408   11.2361 H   0  0  0  0  0  0  0  0  0  0  0  0
  1  2  1  0
  2  3  1  0
  3  4  1  0
  4  5  2  0
  5  6  1  0
  6  7  2  0
  7  8  1  0
  8  9  1  0
  8 10  1  0
 10 11  1  0
 11 12  1  0
 12 13  2  0
 13 14  1  0
 14 15  2  0
 15 16  1  0
 16 17  1  0
 17 18  1  0
 18 19  1  0
 19 20  1  0
  7  3  1  0
 16 12  1  0
 20 15  1  0
  1 21  1  0
  1 22  1  0
  1 23  1  0
  2 24  1  0
  2 25  1  0
  4 26  1  0
  5 27  1  0
  8 28  1  0
  9 29  1  0
  9 30  1  0
  9 31  1  0
 10 32  1  0
 11 33  1  0
 11 34  1  0
 17 35  1  0
 17 36  1  0
 18 37  1  0
 18 38  1  0
 19 39  1  0
 20 40  1  0
 20 41  1  0
M  END
>  <Energy>  (785) 
38.070991615613075

>  <compound_id>  (785) 
5754

>  <target_id>  (785) 
1

>  <reference_id>  (785) 
115

>  <inspiration_ids>  (785) 
[115, 65]

>  <energy_score>  (785) 
-28.16175113223585

>  <distance_score>  (785) 
13.733101335616873

>  <path>  (785) 
/opt/xchem-fragalysis-2/maxwin/BulkDock/SCRATCH/511018/C5754-P115/C5754-P115.minimised.mol

>  <scratch_subdir>  (785) 
/opt/xchem-fragalysis-2/maxwin/BulkDock/SCRATCH/511018/C5754-P115

>  <fragmenstein_runtime>  (785) 
26.14436674118042

>  <fragmenstein_outcome>  (785) 
too moved

>  <fragmenstein_mode>  (785) 
expansion

>  <fragmenstein_error>  (785) 


$$$$
C5754-P65
     RDKit          3D

 41 43  0  0  0  0  0  0  0  0999 V2000
   -9.8108  -16.8584   25.8100 C   0  0  0  0  0  0  0  0  0  0  0  0
  -10.5194  -17.4763   24.3152 C   0  0  0  0  0  0  0  0  0  0  0  0
   -9.7487  -18.7347   23.1868 N   0  0  0  0  0  0  0  0  0  0  0  0
  -10.2776  -20.4097   23.0146 C   0  0  0  0  0  0  0  0  0  0  0  0
   -8.9398  -20.8504   22.2144 C   0  0  0  0  0  0  0  0  0  0  0  0
   -7.9064  -19.3698   21.8873 N   0  0  0  0  0  0  0  0  0  0  0  0
   -8.5024  -17.9936   21.8612 C   0  0  0  0  0  0  0  0  0  0  0  0
   -8.3561  -16.2345   20.6064 C   0  0  0  0  0  0  0  0  0  0  0  0
   -8.8396  -14.3087   20.2385 C   0  0  0  0  0  0  0  0  0  0  0  0
   -8.8534  -15.4275   18.8151 N   0  0  0  0  0  0  0  0  0  0  0  0
   -8.2219  -13.5438   18.2841 C   0  0  0  0  0  0  0  0  0  0  0  0
   -8.0630  -12.3441   16.9700 C   0  0  0  0  0  0  0  0  0  0  0  0
   -8.8935  -11.2844   16.9935 N   0  0  0  0  0  0  0  0  0  0  0  0
   -8.5682  -10.3654   16.0338 N   0  0  0  0  0  0  0  0  0  0  0  0
   -7.4815  -10.7924   15.4480 C   0  0  0  0  0  0  0  0  0  0  0  0
   -7.1088  -12.0154   16.0070 N   0  0  0  0  0  0  0  0  0  0  0  0
   -5.8652  -12.6296   15.6034 C   0  0  0  0  0  0  0  0  0  0  0  0
   -5.3199  -12.0388   14.2716 C   0  0  0  0  0  0  0  0  0  0  0  0
   -5.3518  -10.5685   14.2311 N   0  0  0  0  0  0  0  0  0  0  0  0
   -6.7428  -10.1055   14.3438 C   0  0  0  0  0  0  0  0  0  0  0  0
  -10.4795  -16.1847   26.3572 H   0  0  0  0  0  0  0  0  0  0  0  0
   -9.6423  -17.5975   26.5936 H   0  0  0  0  0  0  0  0  0  0  0  0
   -8.9026  -16.2749   25.6252 H   0  0  0  0  0  0  0  0  0  0  0  0
  -11.1458  -16.8627   23.6539 H   0  0  0  0  0  0  0  0  0  0  0  0
  -11.3792  -17.9603   24.6317 H   0  0  0  0  0  0  0  0  0  0  0  0
  -11.2739  -20.7524   23.2641 H   0  0  0  0  0  0  0  0  0  0  0  0
   -9.1522  -21.5820   21.4436 H   0  0  0  0  0  0  0  0  0  0  0  0
   -7.3049  -16.5403   20.3980 H   0  0  0  0  0  0  0  0  0  0  0  0
   -7.9602  -13.7317   20.0495 H   0  0  0  0  0  0  0  0  0  0  0  0
   -9.7282  -13.9838   19.6004 H   0  0  0  0  0  0  0  0  0  0  0  0
   -9.2909  -13.6002   21.0248 H   0  0  0  0  0  0  0  0  0  0  0  0
   -8.4758  -16.0580   18.1047 H   0  0  0  0  0  0  0  0  0  0  0  0
   -9.0474  -12.8767   18.6579 H   0  0  0  0  0  0  0  0  0  0  0  0
   -7.3731  -13.0219   18.8315 H   0  0  0  0  0  0  0  0  0  0  0  0
   -5.1522  -12.4510   16.4153 H   0  0  0  0  0  0  0  0  0  0  0  0
   -6.0371  -13.7061   15.5058 H   0  0  0  0  0  0  0  0  0  0  0  0
   -5.8957  -12.4419   13.4282 H   0  0  0  0  0  0  0  0  0  0  0  0
   -4.2865  -12.3772   14.1384 H   0  0  0  0  0  0  0  0  0  0  0  0
   -4.9754  -10.2385   13.3433 H   0  0  0  0  0  0  0  0  0  0  0  0
   -6.7401   -9.0250   14.5220 H   0  0  0  0  0  0  0  0  0  0  0  0
   -7.2720  -10.2817   13.3996 H   0  0  0  0  0  0  0  0  0  0  0  0
  1  2  1  0
  2  3  1  0
  3  4  1  0
  4  5  2  0
  5  6  1  0
  6  7  2  0
  7  8  1  0
  8  9  1  0
  8 10  1  0
 10 11  1  0
 11 12  1  0
 12 13  2  0
 13 14  1  0
 14 15  2  0
 15 16  1  0
 16 17  1  0
 17 18  1  0
 18 19  1  0
 19 20  1  0
  7  3  1  0
 16 12  1  0
 20 15  1  0
  1 21  1  0
  1 22  1  0
  1 23  1  0
  2 24  1  0
  2 25  1  0
  4 26  1  0
  5 27  1  0
  8 28  1  0
  9 29  1  0
  9 30  1  0
  9 31  1  0
 10 32  1  0
 11 33  1  0
 11 34  1  0
 17 35  1  0
 17 36  1  0
 18 37  1  0
 18 38  1  0
 19 39  1  0
 20 40  1  0
 20 41  1  0
M  END
>  <Energy>  (786) 
1065.5690851026643

>  <compound_id>  (786) 
5754

>  <target_id>  (786) 
1

>  <reference_id>  (786) 
65

>  <inspiration_ids>  (786) 
[115, 65]

>  <energy_score>  (786) 
999.3363423548186

>  <distance_score>  (786) 
12.742732215843747

>  <path>  (786) 
/opt/xchem-fragalysis-2/maxwin/BulkDock/SCRATCH/511018/C5754-P65/C5754-P65.minimised.mol

>  <scratch_subdir>  (786) 
/opt/xchem-fragalysis-2/maxwin/BulkDock/SCRATCH/511018/C5754-P65

>  <fragmenstein_runtime>  (786) 
26.15641713142395

>  <fragmenstein_outcome>  (786) 
too moved

>  <fragmenstein_mode>  (786) 
expansion

>  <fragmenstein_error>  (786) 


$$$$
C5755-P115
     RDKit          3D

 37 39  0  0  0  0  0  0  0  0999 V2000
   -9.3724  -12.2774   17.9135 O   0  0  0  0  0  0  0  0  0  0  0  0
   -8.2623  -12.5742   18.2700 C   0  0  0  0  0  0  0  0  0  0  0  0
   -8.3297  -13.8184   19.2728 C   0  0  0  0  0  0  0  0  0  0  0  0
   -8.4550  -15.7656   19.1383 C   0  0  0  0  0  0  0  0  0  0  0  0
   -7.0899  -16.7883   20.1126 N   0  0  0  0  0  0  0  0  0  0  0  0
   -7.3077  -17.4883   21.3323 C   0  0  0  0  0  0  0  0  0  0  0  0
   -6.7559  -18.7227   21.3236 C   0  0  0  0  0  0  0  0  0  0  0  0
   -6.1522  -18.9428   20.1515 N   0  0  0  0  0  0  0  0  0  0  0  0
   -6.2806  -17.8213   19.4830 C   0  0  0  0  0  0  0  0  0  0  0  0
   -6.9048  -11.9230   17.9492 N   0  0  0  0  0  0  0  0  0  0  0  0
   -6.4744  -10.5463   16.8221 C   0  0  0  0  0  0  0  0  0  0  0  0
   -5.4021   -9.5049   16.1255 C   0  0  0  0  0  0  0  0  0  0  0  0
   -4.4228   -8.8954   16.7851 N   0  0  0  0  0  0  0  0  0  0  0  0
   -3.9348   -7.8383   16.0618 N   0  0  0  0  0  0  0  0  0  0  0  0
   -4.5703   -7.8044   14.9205 C   0  0  0  0  0  0  0  0  0  0  0  0
   -5.4579   -8.8666   14.8769 N   0  0  0  0  0  0  0  0  0  0  0  0
   -6.2110   -9.1173   13.6642 C   0  0  0  0  0  0  0  0  0  0  0  0
   -5.6286   -8.3485   12.4526 C   0  0  0  0  0  0  0  0  0  0  0  0
   -5.3509   -6.9343   12.7407 N   0  0  0  0  0  0  0  0  0  0  0  0
   -4.3342   -6.8470   13.7956 C   0  0  0  0  0  0  0  0  0  0  0  0
   -9.2383  -13.5390   19.7827 H   0  0  0  0  0  0  0  0  0  0  0  0
   -7.4995  -13.4938   19.8673 H   0  0  0  0  0  0  0  0  0  0  0  0
   -9.3122  -16.0300   19.6823 H   0  0  0  0  0  0  0  0  0  0  0  0
   -8.2445  -16.1629   18.1326 H   0  0  0  0  0  0  0  0  0  0  0  0
   -7.7980  -17.0396   22.1384 H   0  0  0  0  0  0  0  0  0  0  0  0
   -6.7980  -19.4260   22.1346 H   0  0  0  0  0  0  0  0  0  0  0  0
   -5.7981  -17.6813   18.5406 H   0  0  0  0  0  0  0  0  0  0  0  0
   -6.1803  -12.3787   18.4835 H   0  0  0  0  0  0  0  0  0  0  0  0
   -5.4856  -10.9452   17.1062 H   0  0  0  0  0  0  0  0  0  0  0  0
   -7.0178   -9.7215   17.2902 H   0  0  0  0  0  0  0  0  0  0  0  0
   -7.2474   -8.8372   13.8689 H   0  0  0  0  0  0  0  0  0  0  0  0
   -6.1508  -10.1801   13.4330 H   0  0  0  0  0  0  0  0  0  0  0  0
   -6.3145   -8.4389   11.6068 H   0  0  0  0  0  0  0  0  0  0  0  0
   -4.6988   -8.8337   12.1262 H   0  0  0  0  0  0  0  0  0  0  0  0
   -6.1958   -6.4761   13.0826 H   0  0  0  0  0  0  0  0  0  0  0  0
   -3.3473   -7.0456   13.3612 H   0  0  0  0  0  0  0  0  0  0  0  0
   -4.3104   -5.8229   14.1838 H   0  0  0  0  0  0  0  0  0  0  0  0
  1  2  2  0
  2  3  1  0
  3  4  1  0
  4  5  1  0
  5  6  1  0
  6  7  2  0
  7  8  1  0
  8  9  2  0
  2 10  1  0
 10 11  1  0
 11 12  1  0
 12 13  2  0
 13 14  1  0
 14 15  2  0
 15 16  1  0
 16 17  1  0
 17 18  1  0
 18 19  1  0
 19 20  1  0
  9  5  1  0
 16 12  1  0
 20 15  1  0
  3 21  1  0
  3 22  1  0
  4 23  1  0
  4 24  1  0
  6 25  1  0
  7 26  1  0
  9 27  1  0
 10 28  1  0
 11 29  1  0
 11 30  1  0
 17 31  1  0
 17 32  1  0
 18 33  1  0
 18 34  1  0
 19 35  1  0
 20 36  1  0
 20 37  1  0
M  END
>  <Energy>  (787) 
286.70766116050942

>  <compound_id>  (787) 
5755

>  <target_id>  (787) 
1

>  <reference_id>  (787) 
115

>  <inspiration_ids>  (787) 
[115, 65]

>  <energy_score>  (787) 
273.0104138798288

>  <distance_score>  (787) 
12.021890425165425

>  <path>  (787) 
/opt/xchem-fragalysis-2/maxwin/BulkDock/SCRATCH/511018/C5755-P115/C5755-P115.minimised.mol

>  <scratch_subdir>  (787) 
/opt/xchem-fragalysis-2/maxwin/BulkDock/SCRATCH/511018/C5755-P115

>  <fragmenstein_runtime>  (787) 
19.749812364578247

>  <fragmenstein_outcome>  (787) 
too moved

>  <fragmenstein_mode>  (787) 
expansion

>  <fragmenstein_error>  (787) 


$$$$
C5755-P65
     RDKit          3D

 37 39  0  0  0  0  0  0  0  0999 V2000
   -7.0527  -15.2225   16.3279 O   0  0  0  0  0  0  0  0  0  0  0  0
   -7.7053  -16.0468   15.7268 C   0  0  0  0  0  0  0  0  0  0  0  0
   -8.3342  -17.4281   16.9593 C   0  0  0  0  0  0  0  0  0  0  0  0
   -9.7152  -18.7575   17.2966 C   0  0  0  0  0  0  0  0  0  0  0  0
   -9.9311  -19.9920   18.7679 N   0  0  0  0  0  0  0  0  0  0  0  0
   -9.1758  -20.9931   19.0126 C   0  0  0  0  0  0  0  0  0  0  0  0
   -9.9880  -21.9299   19.8960 C   0  0  0  0  0  0  0  0  0  0  0  0
  -10.6587  -21.5855   20.9118 N   0  0  0  0  0  0  0  0  0  0  0  0
  -11.1039  -20.7148   20.0832 C   0  0  0  0  0  0  0  0  0  0  0  0
   -7.9867  -16.1741   14.1171 N   0  0  0  0  0  0  0  0  0  0  0  0
   -7.5936  -15.2378   12.9419 C   0  0  0  0  0  0  0  0  0  0  0  0
   -8.1534  -13.8079   12.7242 C   0  0  0  0  0  0  0  0  0  0  0  0
   -9.2872  -13.3077   13.1969 N   0  0  0  0  0  0  0  0  0  0  0  0
   -9.3876  -11.9671   12.8500 N   0  0  0  0  0  0  0  0  0  0  0  0
   -8.3360  -11.6504   12.1312 C   0  0  0  0  0  0  0  0  0  0  0  0
   -7.5972  -12.7954   11.9242 N   0  0  0  0  0  0  0  0  0  0  0  0
   -6.4825  -12.7956   10.9930 C   0  0  0  0  0  0  0  0  0  0  0  0
   -6.4083  -11.4950   10.1463 C   0  0  0  0  0  0  0  0  0  0  0  0
   -6.6210  -10.2912   10.9551 N   0  0  0  0  0  0  0  0  0  0  0  0
   -7.9715  -10.3163   11.5541 C   0  0  0  0  0  0  0  0  0  0  0  0
   -7.5290  -17.8683   17.5417 H   0  0  0  0  0  0  0  0  0  0  0  0
   -8.6331  -16.6271   17.6531 H   0  0  0  0  0  0  0  0  0  0  0  0
   -9.9747  -19.1749   16.3292 H   0  0  0  0  0  0  0  0  0  0  0  0
  -10.5459  -18.1084   17.6432 H   0  0  0  0  0  0  0  0  0  0  0  0
   -8.6742  -21.1276   18.0347 H   0  0  0  0  0  0  0  0  0  0  0  0
  -10.4112  -22.8821   19.4979 H   0  0  0  0  0  0  0  0  0  0  0  0
  -12.0017  -20.1915   20.1947 H   0  0  0  0  0  0  0  0  0  0  0  0
   -8.5042  -17.0249   13.9302 H   0  0  0  0  0  0  0  0  0  0  0  0
   -6.5180  -15.2890   12.7590 H   0  0  0  0  0  0  0  0  0  0  0  0
   -8.0097  -15.7936   12.0882 H   0  0  0  0  0  0  0  0  0  0  0  0
   -5.5669  -12.9240   11.5732 H   0  0  0  0  0  0  0  0  0  0  0  0
   -6.6053  -13.6643   10.3379 H   0  0  0  0  0  0  0  0  0  0  0  0
   -5.4250  -11.4422    9.6660 H   0  0  0  0  0  0  0  0  0  0  0  0
   -7.1530  -11.5347    9.3408 H   0  0  0  0  0  0  0  0  0  0  0  0
   -6.5492   -9.4530   10.3779 H   0  0  0  0  0  0  0  0  0  0  0  0
   -8.7165  -10.0407   10.7991 H   0  0  0  0  0  0  0  0  0  0  0  0
   -8.0030   -9.5747   12.3556 H   0  0  0  0  0  0  0  0  0  0  0  0
  1  2  2  0
  2  3  1  0
  3  4  1  0
  4  5  1  0
  5  6  1  0
  6  7  2  0
  7  8  1  0
  8  9  2  0
  2 10  1  0
 10 11  1  0
 11 12  1  0
 12 13  2  0
 13 14  1  0
 14 15  2  0
 15 16  1  0
 16 17  1  0
 17 18  1  0
 18 19  1  0
 19 20  1  0
  9  5  1  0
 16 12  1  0
 20 15  1  0
  3 21  1  0
  3 22  1  0
  4 23  1  0
  4 24  1  0
  6 25  1  0
  7 26  1  0
  9 27  1  0
 10 28  1  0
 11 29  1  0
 11 30  1  0
 17 31  1  0
 17 32  1  0
 18 33  1  0
 18 34  1  0
 19 35  1  0
 20 36  1  0
 20 37  1  0
M  END
>  <Energy>  (788) 
428.94039000208045

>  <compound_id>  (788) 
5755

>  <target_id>  (788) 
1

>  <reference_id>  (788) 
65

>  <inspiration_ids>  (788) 
[115, 65]

>  <energy_score>  (788) 
415.2431427213984

>  <distance_score>  (788) 
12.481804513153854

>  <path>  (788) 
/opt/xchem-fragalysis-2/maxwin/BulkDock/SCRATCH/511018/C5755-P65/C5755-P65.minimised.mol

>  <scratch_subdir>  (788) 
/opt/xchem-fragalysis-2/maxwin/BulkDock/SCRATCH/511018/C5755-P65

>  <fragmenstein_runtime>  (788) 
35.7490074634552

>  <fragmenstein_outcome>  (788) 
too moved

>  <fragmenstein_mode>  (788) 
expansion

>  <fragmenstein_error>  (788) 


$$$$
C5756-P115
     RDKit          3D

 37 39  0  0  0  0  0  0  0  0999 V2000
   -7.9290  -16.4902   17.4139 C   0  0  0  0  0  0  0  0  0  0  0  0
   -8.2287  -15.7476   18.6981 C   0  0  0  0  0  0  0  0  0  0  0  0
   -8.2773  -13.6942   18.9100 C   0  0  0  0  0  0  0  0  0  0  0  0
   -9.1689  -13.3853   19.6464 O   0  0  0  0  0  0  0  0  0  0  0  0
   -7.1169  -12.5711   18.2453 N   0  0  0  0  0  0  0  0  0  0  0  0
   -6.8954  -11.0756   18.5021 C   0  0  0  0  0  0  0  0  0  0  0  0
   -6.5196   -9.8436   17.5179 C   0  0  0  0  0  0  0  0  0  0  0  0
   -7.1812   -8.6896   17.6896 N   0  0  0  0  0  0  0  0  0  0  0  0
   -6.9146   -7.8064   16.6799 N   0  0  0  0  0  0  0  0  0  0  0  0
   -5.9662   -8.3334   15.9521 C   0  0  0  0  0  0  0  0  0  0  0  0
   -5.5823   -9.5424   16.5292 N   0  0  0  0  0  0  0  0  0  0  0  0
   -4.2998  -10.1130   16.1768 C   0  0  0  0  0  0  0  0  0  0  0  0
   -3.4294   -9.1301   15.3443 C   0  0  0  0  0  0  0  0  0  0  0  0
   -4.1822   -8.5025   14.2502 N   0  0  0  0  0  0  0  0  0  0  0  0
   -5.2701   -7.6795   14.8013 C   0  0  0  0  0  0  0  0  0  0  0  0
   -6.9779  -16.8812   19.7572 N   0  0  0  0  0  0  0  0  0  0  0  0
   -6.0434  -17.8454   19.2523 C   0  0  0  0  0  0  0  0  0  0  0  0
   -5.9700  -18.8968   20.1200 C   0  0  0  0  0  0  0  0  0  0  0  0
   -6.6457  -18.6521   21.2485 N   0  0  0  0  0  0  0  0  0  0  0  0
   -7.1498  -17.4652   21.0677 C   0  0  0  0  0  0  0  0  0  0  0  0
   -7.7212  -17.5354   17.5755 H   0  0  0  0  0  0  0  0  0  0  0  0
   -7.1850  -16.0019   16.7692 H   0  0  0  0  0  0  0  0  0  0  0  0
   -8.7309  -16.5999   16.7945 H   0  0  0  0  0  0  0  0  0  0  0  0
   -9.0779  -15.9302   19.3328 H   0  0  0  0  0  0  0  0  0  0  0  0
   -6.5341  -13.0475   17.6048 H   0  0  0  0  0  0  0  0  0  0  0  0
   -7.7594  -10.7155   19.0052 H   0  0  0  0  0  0  0  0  0  0  0  0
   -6.0453  -11.0897   19.1878 H   0  0  0  0  0  0  0  0  0  0  0  0
   -3.7875  -10.3791   17.1071 H   0  0  0  0  0  0  0  0  0  0  0  0
   -4.4752  -11.0216   15.6026 H   0  0  0  0  0  0  0  0  0  0  0  0
   -2.5816   -9.6837   14.9257 H   0  0  0  0  0  0  0  0  0  0  0  0
   -3.0091   -8.3559   15.9995 H   0  0  0  0  0  0  0  0  0  0  0  0
   -3.5684   -7.8979   13.7053 H   0  0  0  0  0  0  0  0  0  0  0  0
   -4.8639   -6.7182   15.1383 H   0  0  0  0  0  0  0  0  0  0  0  0
   -5.9931   -7.4706   14.0063 H   0  0  0  0  0  0  0  0  0  0  0  0
   -5.4375  -17.6681   18.3869 H   0  0  0  0  0  0  0  0  0  0  0  0
   -5.3491  -19.7689   20.0301 H   0  0  0  0  0  0  0  0  0  0  0  0
   -7.7715  -17.0118   21.7900 H   0  0  0  0  0  0  0  0  0  0  0  0
  1  2  1  0
  2  3  1  0
  3  4  2  0
  3  5  1  0
  5  6  1  0
  6  7  1  0
  7  8  2  0
  8  9  1  0
  9 10  2  0
 10 11  1  0
 11 12  1  0
 12 13  1  0
 13 14  1  0
 14 15  1  0
  2 16  1  0
 16 17  1  0
 17 18  2  0
 18 19  1  0
 19 20  2  0
 11  7  1  0
 20 16  1  0
 15 10  1  0
  1 21  1  0
  1 22  1  0
  1 23  1  0
  2 24  1  0
  5 25  1  0
  6 26  1  0
  6 27  1  0
 12 28  1  0
 12 29  1  0
 13 30  1  0
 13 31  1  0
 14 32  1  0
 15 33  1  0
 15 34  1  0
 17 35  1  0
 18 36  1  0
 20 37  1  0
M  END
>  <Energy>  (789) 
283.78763822145044

>  <compound_id>  (789) 
5756

>  <target_id>  (789) 
1

>  <reference_id>  (789) 
115

>  <inspiration_ids>  (789) 
[115, 65]

>  <energy_score>  (789) 
228.49504768487088

>  <distance_score>  (789) 
13.03843175550348

>  <path>  (789) 
/opt/xchem-fragalysis-2/maxwin/BulkDock/SCRATCH/511018/C5756-P115/C5756-P115.minimised.mol

>  <scratch_subdir>  (789) 
/opt/xchem-fragalysis-2/maxwin/BulkDock/SCRATCH/511018/C5756-P115

>  <fragmenstein_runtime>  (789) 
18.906461000442505

>  <fragmenstein_outcome>  (789) 
too moved

>  <fragmenstein_mode>  (789) 
expansion

>  <fragmenstein_error>  (789) 


$$$$
C5756-P65
     RDKit          3D

 37 39  0  0  0  0  0  0  0  0999 V2000
  -12.8178  -15.5538   23.6732 C   0  0  0  0  0  0  0  0  0  0  0  0
  -11.6520  -15.2682   22.6857 C   0  0  0  0  0  0  0  0  0  0  0  0
  -10.8576  -13.4942   21.6864 C   0  0  0  0  0  0  0  0  0  0  0  0
  -11.1225  -12.4116   22.2720 O   0  0  0  0  0  0  0  0  0  0  0  0
   -9.7709  -13.5318   20.0665 N   0  0  0  0  0  0  0  0  0  0  0  0
   -9.0432  -12.1671   18.9999 C   0  0  0  0  0  0  0  0  0  0  0  0
   -7.5661  -10.9397   18.8678 C   0  0  0  0  0  0  0  0  0  0  0  0
   -7.8580   -9.6123   19.0935 N   0  0  0  0  0  0  0  0  0  0  0  0
   -7.2154   -8.7097   18.3094 N   0  0  0  0  0  0  0  0  0  0  0  0
   -6.4094   -9.3977   17.5638 C   0  0  0  0  0  0  0  0  0  0  0  0
   -6.4441  -10.7429   17.9814 N   0  0  0  0  0  0  0  0  0  0  0  0
   -5.1307  -11.3555   18.0070 C   0  0  0  0  0  0  0  0  0  0  0  0
   -4.1394  -10.8125   16.9266 C   0  0  0  0  0  0  0  0  0  0  0  0
   -4.1195   -9.3543   16.7703 N   0  0  0  0  0  0  0  0  0  0  0  0
   -5.4751   -8.8601   16.5355 C   0  0  0  0  0  0  0  0  0  0  0  0
  -11.7235  -16.9388   23.6927 N   0  0  0  0  0  0  0  0  0  0  0  0
  -13.0339  -18.1988   24.0812 C   0  0  0  0  0  0  0  0  0  0  0  0
  -12.1891  -19.9745   24.0351 C   0  0  0  0  0  0  0  0  0  0  0  0
  -10.4118  -19.3078   23.5992 N   0  0  0  0  0  0  0  0  0  0  0  0
  -10.5943  -17.6940   24.1851 C   0  0  0  0  0  0  0  0  0  0  0  0
  -13.4970  -16.0641   22.9315 H   0  0  0  0  0  0  0  0  0  0  0  0
  -12.6566  -15.2861   24.7335 H   0  0  0  0  0  0  0  0  0  0  0  0
  -13.5619  -16.1319   24.2192 H   0  0  0  0  0  0  0  0  0  0  0  0
  -11.9460  -15.8920   21.8228 H   0  0  0  0  0  0  0  0  0  0  0  0
   -9.6065  -14.4954   19.8035 H   0  0  0  0  0  0  0  0  0  0  0  0
   -9.9092  -11.9211   18.3863 H   0  0  0  0  0  0  0  0  0  0  0  0
   -8.4603  -12.8698   18.3887 H   0  0  0  0  0  0  0  0  0  0  0  0
   -4.7237  -11.2078   19.0135 H   0  0  0  0  0  0  0  0  0  0  0  0
   -5.3173  -12.4016   17.8403 H   0  0  0  0  0  0  0  0  0  0  0  0
   -3.1313  -11.1533   17.1892 H   0  0  0  0  0  0  0  0  0  0  0  0
   -4.3633  -11.2634   15.9554 H   0  0  0  0  0  0  0  0  0  0  0  0
   -3.5203   -9.0859   15.9917 H   0  0  0  0  0  0  0  0  0  0  0  0
   -5.4669   -7.7658   16.5769 H   0  0  0  0  0  0  0  0  0  0  0  0
   -5.8217   -9.1458   15.5361 H   0  0  0  0  0  0  0  0  0  0  0  0
  -13.9789  -17.8032   24.1379 H   0  0  0  0  0  0  0  0  0  0  0  0
  -12.4586  -21.0206   23.9487 H   0  0  0  0  0  0  0  0  0  0  0  0
  -10.1120  -17.3145   25.0915 H   0  0  0  0  0  0  0  0  0  0  0  0
  1  2  1  0
  2  3  1  0
  3  4  2  0
  3  5  1  0
  5  6  1  0
  6  7  1  0
  7  8  2  0
  8  9  1  0
  9 10  2  0
 10 11  1  0
 11 12  1  0
 12 13  1  0
 13 14  1  0
 14 15  1  0
  2 16  1  0
 16 17  1  0
 17 18  2  0
 18 19  1  0
 19 20  2  0
 11  7  1  0
 20 16  1  0
 15 10  1  0
  1 21  1  0
  1 22  1  0
  1 23  1  0
  2 24  1  0
  5 25  1  0
  6 26  1  0
  6 27  1  0
 12 28  1  0
 12 29  1  0
 13 30  1  0
 13 31  1  0
 14 32  1  0
 15 33  1  0
 15 34  1  0
 17 35  1  0
 18 36  1  0
 20 37  1  0
M  END
>  <Energy>  (790) 
1055.357619395046

>  <compound_id>  (790) 
5756

>  <target_id>  (790) 
1

>  <reference_id>  (790) 
65

>  <inspiration_ids>  (790) 
[115, 65]

>  <energy_score>  (790) 
1000.0650288584579

>  <distance_score>  (790) 
13.01540450322424

>  <path>  (790) 
/opt/xchem-fragalysis-2/maxwin/BulkDock/SCRATCH/511018/C5756-P65/C5756-P65.minimised.mol

>  <scratch_subdir>  (790) 
/opt/xchem-fragalysis-2/maxwin/BulkDock/SCRATCH/511018/C5756-P65

>  <fragmenstein_runtime>  (790) 
24.058587312698364

>  <fragmenstein_outcome>  (790) 
too moved

>  <fragmenstein_mode>  (790) 
expansion

>  <fragmenstein_error>  (790) 


$$$$
C5757-P115
     RDKit          3D

 34 36  0  0  0  0  0  0  0  0999 V2000
   -9.4575  -13.3291   20.0081 O   0  0  0  0  0  0  0  0  0  0  0  0
   -8.9732  -13.8010   19.0490 C   0  0  0  0  0  0  0  0  0  0  0  0
   -9.4327  -15.7577   18.5774 C   0  0  0  0  0  0  0  0  0  0  0  0
  -10.8896  -17.0706   17.9797 N   0  0  0  0  0  0  0  0  0  0  0  0
  -11.4745  -16.9493   19.1478 C   0  0  0  0  0  0  0  0  0  0  0  0
  -12.0796  -18.2108   19.8103 N   0  0  0  0  0  0  0  0  0  0  0  0
  -12.2028  -19.2839   18.9736 C   0  0  0  0  0  0  0  0  0  0  0  0
  -11.4016  -21.0397   20.5518 Br  0  0  0  0  0  0  0  0  0  0  0  0
  -11.4328  -18.2345   18.2371 C   0  0  0  0  0  0  0  0  0  0  0  0
   -8.0407  -13.0223   17.9480 N   0  0  0  0  0  0  0  0  0  0  0  0
   -7.6712  -11.5773   17.8219 C   0  0  0  0  0  0  0  0  0  0  0  0
   -7.4125  -11.0894   16.3605 C   0  0  0  0  0  0  0  0  0  0  0  0
   -7.5868  -11.7957   15.2510 N   0  0  0  0  0  0  0  0  0  0  0  0
   -7.2364  -11.0335   14.1495 N   0  0  0  0  0  0  0  0  0  0  0  0
   -6.8373   -9.8601   14.5778 C   0  0  0  0  0  0  0  0  0  0  0  0
   -6.9692   -9.8316   15.9487 N   0  0  0  0  0  0  0  0  0  0  0  0
   -6.6832   -8.6216   16.6918 C   0  0  0  0  0  0  0  0  0  0  0  0
   -5.8164   -7.6204   15.8851 C   0  0  0  0  0  0  0  0  0  0  0  0
   -6.2841   -7.4488   14.5055 N   0  0  0  0  0  0  0  0  0  0  0  0
   -6.2351   -8.7385   13.7910 C   0  0  0  0  0  0  0  0  0  0  0  0
   -9.3444  -16.0663   19.5949 H   0  0  0  0  0  0  0  0  0  0  0  0
   -8.6437  -16.1779   17.9131 H   0  0  0  0  0  0  0  0  0  0  0  0
  -11.9411  -15.9895   19.5612 H   0  0  0  0  0  0  0  0  0  0  0  0
  -11.9850  -18.0119   17.2434 H   0  0  0  0  0  0  0  0  0  0  0  0
   -7.6949  -13.6888   17.2761 H   0  0  0  0  0  0  0  0  0  0  0  0
   -6.7631  -11.4262   18.4126 H   0  0  0  0  0  0  0  0  0  0  0  0
   -8.4931  -10.9888   18.2370 H   0  0  0  0  0  0  0  0  0  0  0  0
   -7.6527   -8.1750   16.9396 H   0  0  0  0  0  0  0  0  0  0  0  0
   -6.1738   -8.9063   17.6178 H   0  0  0  0  0  0  0  0  0  0  0  0
   -5.8314   -6.6509   16.3950 H   0  0  0  0  0  0  0  0  0  0  0  0
   -4.7726   -7.9598   15.8786 H   0  0  0  0  0  0  0  0  0  0  0  0
   -5.6931   -6.7816   14.0118 H   0  0  0  0  0  0  0  0  0  0  0  0
   -5.1904   -8.9906   13.5708 H   0  0  0  0  0  0  0  0  0  0  0  0
   -6.7484   -8.6478   12.8305 H   0  0  0  0  0  0  0  0  0  0  0  0
  1  2  2  0
  2  3  1  0
  3  4  1  0
  4  5  1  0
  5  6  2  0
  6  7  1  0
  7  8  1  0
  7  9  2  0
  2 10  1  0
 10 11  1  0
 11 12  1  0
 12 13  2  0
 13 14  1  0
 14 15  2  0
 15 16  1  0
 16 17  1  0
 17 18  1  0
 18 19  1  0
 19 20  1  0
  9  4  1  0
 16 12  1  0
 20 15  1  0
  3 21  1  0
  3 22  1  0
  5 23  1  0
  9 24  1  0
 10 25  1  0
 11 26  1  0
 11 27  1  0
 17 28  1  0
 17 29  1  0
 18 30  1  0
 18 31  1  0
 19 32  1  0
 20 33  1  0
 20 34  1  0
M  END
>  <Energy>  (791) 
566.27287600033173

>  <compound_id>  (791) 
5757

>  <target_id>  (791) 
1

>  <reference_id>  (791) 
115

>  <inspiration_ids>  (791) 
[115, 65]

>  <energy_score>  (791) 
526.5746477043667

>  <distance_score>  (791) 
13.030069348789793

>  <path>  (791) 
/opt/xchem-fragalysis-2/maxwin/BulkDock/SCRATCH/511018/C5757-P115/C5757-P115.minimised.mol

>  <scratch_subdir>  (791) 
/opt/xchem-fragalysis-2/maxwin/BulkDock/SCRATCH/511018/C5757-P115

>  <fragmenstein_runtime>  (791) 
22.768585443496704

>  <fragmenstein_outcome>  (791) 
too moved

>  <fragmenstein_mode>  (791) 
expansion

>  <fragmenstein_error>  (791) 


$$$$
C5757-P65
     RDKit          3D

 34 36  0  0  0  0  0  0  0  0999 V2000
   -9.9440  -15.7552   19.0204 O   0  0  0  0  0  0  0  0  0  0  0  0
   -8.9691  -15.3138   19.4814 C   0  0  0  0  0  0  0  0  0  0  0  0
   -7.5992  -16.4790   20.5029 C   0  0  0  0  0  0  0  0  0  0  0  0
   -7.3218  -18.1491   21.1985 N   0  0  0  0  0  0  0  0  0  0  0  0
   -7.3211  -18.1668   22.5267 C   0  0  0  0  0  0  0  0  0  0  0  0
   -6.9226  -19.1601   23.2303 N   0  0  0  0  0  0  0  0  0  0  0  0
   -6.6685  -20.0452   22.3211 C   0  0  0  0  0  0  0  0  0  0  0  0
   -5.4107  -22.0877   23.0292 Br  0  0  0  0  0  0  0  0  0  0  0  0
   -6.5976  -19.3023   20.9877 C   0  0  0  0  0  0  0  0  0  0  0  0
   -8.4327  -13.6225   19.2785 N   0  0  0  0  0  0  0  0  0  0  0  0
   -9.0496  -12.3979   18.3774 C   0  0  0  0  0  0  0  0  0  0  0  0
   -8.0964  -11.7388   17.2815 C   0  0  0  0  0  0  0  0  0  0  0  0
   -7.0662  -12.2977   16.6660 N   0  0  0  0  0  0  0  0  0  0  0  0
   -6.4772  -11.3842   15.8059 N   0  0  0  0  0  0  0  0  0  0  0  0
   -7.1389  -10.2578   15.8911 C   0  0  0  0  0  0  0  0  0  0  0  0
   -8.1947  -10.4445   16.7564 N   0  0  0  0  0  0  0  0  0  0  0  0
   -9.1091   -9.3610   17.0542 C   0  0  0  0  0  0  0  0  0  0  0  0
   -8.9379   -8.1586   16.0937 C   0  0  0  0  0  0  0  0  0  0  0  0
   -7.5247   -7.8300   15.8739 N   0  0  0  0  0  0  0  0  0  0  0  0
   -6.8624   -8.9607   15.1970 C   0  0  0  0  0  0  0  0  0  0  0  0
   -7.0372  -17.0316   19.7243 H   0  0  0  0  0  0  0  0  0  0  0  0
   -8.2567  -16.6069   21.2965 H   0  0  0  0  0  0  0  0  0  0  0  0
   -7.5865  -17.2602   22.9818 H   0  0  0  0  0  0  0  0  0  0  0  0
   -6.1237  -19.5595   20.0512 H   0  0  0  0  0  0  0  0  0  0  0  0
   -7.6173  -13.4627   19.8307 H   0  0  0  0  0  0  0  0  0  0  0  0
   -9.1322  -11.5269   18.9875 H   0  0  0  0  0  0  0  0  0  0  0  0
  -10.0989  -12.4949   18.1021 H   0  0  0  0  0  0  0  0  0  0  0  0
   -8.8980   -9.0511   18.0830 H   0  0  0  0  0  0  0  0  0  0  0  0
  -10.1280   -9.7573   16.9999 H   0  0  0  0  0  0  0  0  0  0  0  0
   -9.4544   -7.2898   16.5158 H   0  0  0  0  0  0  0  0  0  0  0  0
   -9.4238   -8.3897   15.1406 H   0  0  0  0  0  0  0  0  0  0  0  0
   -7.4239   -6.9929   15.3047 H   0  0  0  0  0  0  0  0  0  0  0  0
   -7.1979   -9.0310   14.1562 H   0  0  0  0  0  0  0  0  0  0  0  0
   -5.7827   -8.7784   15.1853 H   0  0  0  0  0  0  0  0  0  0  0  0
  1  2  2  0
  2  3  1  0
  3  4  1  0
  4  5  1  0
  5  6  2  0
  6  7  1  0
  7  8  1  0
  7  9  2  0
  2 10  1  0
 10 11  1  0
 11 12  1  0
 12 13  2  0
 13 14  1  0
 14 15  2  0
 15 16  1  0
 16 17  1  0
 17 18  1  0
 18 19  1  0
 19 20  1  0
  9  4  1  0
 16 12  1  0
 20 15  1  0
  3 21  1  0
  3 22  1  0
  5 23  1  0
  9 24  1  0
 10 25  1  0
 11 26  1  0
 11 27  1  0
 17 28  1  0
 17 29  1  0
 18 30  1  0
 18 31  1  0
 19 32  1  0
 20 33  1  0
 20 34  1  0
M  END
>  <Energy>  (792) 
342.40206541629954

>  <compound_id>  (792) 
5757

>  <target_id>  (792) 
1

>  <reference_id>  (792) 
65

>  <inspiration_ids>  (792) 
[115, 65]

>  <energy_score>  (792) 
302.70383712032606

>  <distance_score>  (792) 
12.830616062358303

>  <path>  (792) 
/opt/xchem-fragalysis-2/maxwin/BulkDock/SCRATCH/511018/C5757-P65/C5757-P65.minimised.mol

>  <scratch_subdir>  (792) 
/opt/xchem-fragalysis-2/maxwin/BulkDock/SCRATCH/511018/C5757-P65

>  <fragmenstein_runtime>  (792) 
26.534725427627563

>  <fragmenstein_outcome>  (792) 
too moved

>  <fragmenstein_mode>  (792) 
expansion

>  <fragmenstein_error>  (792) 


$$$$
C5758-P115
     RDKit          3D

 40 42  0  0  0  0  0  0  0  0999 V2000
   -6.7752  -18.4724   22.6243 C   0  0  0  0  0  0  0  0  0  0  0  0
   -6.9209  -18.2012   21.2040 C   0  0  0  0  0  0  0  0  0  0  0  0
   -7.0430  -19.5482   20.6562 C   0  0  0  0  0  0  0  0  0  0  0  0
   -6.1983  -17.4234   20.2484 N   0  0  0  0  0  0  0  0  0  0  0  0
   -5.0299  -17.9032   19.6273 C   0  0  0  0  0  0  0  0  0  0  0  0
   -5.4369  -18.6075   18.5686 C   0  0  0  0  0  0  0  0  0  0  0  0
   -6.7565  -18.3170   18.3795 N   0  0  0  0  0  0  0  0  0  0  0  0
   -7.0240  -17.2170   19.0996 C   0  0  0  0  0  0  0  0  0  0  0  0
   -8.1243  -15.8818   18.3419 C   0  0  0  0  0  0  0  0  0  0  0  0
   -8.5186  -16.2561   17.2723 O   0  0  0  0  0  0  0  0  0  0  0  0
   -8.3973  -14.1658   19.0613 N   0  0  0  0  0  0  0  0  0  0  0  0
   -9.0908  -12.7689   18.3835 C   0  0  0  0  0  0  0  0  0  0  0  0
   -8.1378  -11.9074   17.3762 C   0  0  0  0  0  0  0  0  0  0  0  0
   -6.9583  -12.2657   16.8825 N   0  0  0  0  0  0  0  0  0  0  0  0
   -6.4547  -11.2658   16.0656 N   0  0  0  0  0  0  0  0  0  0  0  0
   -7.3225  -10.2851   16.0494 C   0  0  0  0  0  0  0  0  0  0  0  0
   -8.4141  -10.6605   16.8064 N   0  0  0  0  0  0  0  0  0  0  0  0
   -9.5584   -9.7845   16.9312 C   0  0  0  0  0  0  0  0  0  0  0  0
   -9.5312   -8.6289   15.8974 C   0  0  0  0  0  0  0  0  0  0  0  0
   -8.2089   -7.9967   15.8227 N   0  0  0  0  0  0  0  0  0  0  0  0
   -7.2285   -8.9779   15.3238 C   0  0  0  0  0  0  0  0  0  0  0  0
   -6.0401  -19.0790   23.0390 H   0  0  0  0  0  0  0  0  0  0  0  0
   -7.6314  -19.0833   22.9053 H   0  0  0  0  0  0  0  0  0  0  0  0
   -6.7532  -17.5578   23.1582 H   0  0  0  0  0  0  0  0  0  0  0  0
   -7.8423  -17.6550   21.3274 H   0  0  0  0  0  0  0  0  0  0  0  0
   -6.0436  -19.9786   20.5532 H   0  0  0  0  0  0  0  0  0  0  0  0
   -7.6629  -20.0772   21.3458 H   0  0  0  0  0  0  0  0  0  0  0  0
   -7.5777  -19.6916   19.7346 H   0  0  0  0  0  0  0  0  0  0  0  0
   -4.0128  -17.5763   19.7848 H   0  0  0  0  0  0  0  0  0  0  0  0
   -4.8109  -19.1110   17.8477 H   0  0  0  0  0  0  0  0  0  0  0  0
   -8.0491  -14.1285   19.9965 H   0  0  0  0  0  0  0  0  0  0  0  0
   -9.1272  -12.0898   19.1740 H   0  0  0  0  0  0  0  0  0  0  0  0
  -10.1312  -12.7607   18.1457 H   0  0  0  0  0  0  0  0  0  0  0  0
  -10.4626  -10.3892   16.8104 H   0  0  0  0  0  0  0  0  0  0  0  0
   -9.5283   -9.3797   17.9474 H   0  0  0  0  0  0  0  0  0  0  0  0
   -9.8233   -9.0081   14.9105 H   0  0  0  0  0  0  0  0  0  0  0  0
  -10.2764   -7.8798   16.1862 H   0  0  0  0  0  0  0  0  0  0  0  0
   -8.2248   -7.1909   15.2029 H   0  0  0  0  0  0  0  0  0  0  0  0
   -6.2224   -8.5643   15.4493 H   0  0  0  0  0  0  0  0  0  0  0  0
   -7.3840   -9.1519   14.2527 H   0  0  0  0  0  0  0  0  0  0  0  0
  1  2  1  0
  2  3  1  0
  2  4  1  0
  4  5  1  0
  5  6  2  0
  6  7  1  0
  7  8  2  0
  8  9  1  0
  9 10  2  0
  9 11  1  0
 11 12  1  0
 12 13  1  0
 13 14  2  0
 14 15  1  0
 15 16  2  0
 16 17  1  0
 17 18  1  0
 18 19  1  0
 19 20  1  0
 20 21  1  0
  8  4  1  0
 17 13  1  0
 21 16  1  0
  1 22  1  0
  1 23  1  0
  1 24  1  0
  2 25  1  0
  3 26  1  0
  3 27  1  0
  3 28  1  0
  5 29  1  0
  6 30  1  0
 11 31  1  0
 12 32  1  0
 12 33  1  0
 18 34  1  0
 18 35  1  0
 19 36  1  0
 19 37  1  0
 20 38  1  0
 21 39  1  0
 21 40  1  0
M  END
>  <Energy>  (793) 
293.55684262308256

>  <compound_id>  (793) 
5758

>  <target_id>  (793) 
1

>  <reference_id>  (793) 
115

>  <inspiration_ids>  (793) 
[115, 65]

>  <energy_score>  (793) 
230.5452721297777

>  <distance_score>  (793) 
14.188868014991082

>  <path>  (793) 
/opt/xchem-fragalysis-2/maxwin/BulkDock/SCRATCH/511018/C5758-P115/C5758-P115.minimised.mol

>  <scratch_subdir>  (793) 
/opt/xchem-fragalysis-2/maxwin/BulkDock/SCRATCH/511018/C5758-P115

>  <fragmenstein_runtime>  (793) 
38.27663230895996

>  <fragmenstein_outcome>  (793) 
too moved

>  <fragmenstein_mode>  (793) 
expansion

>  <fragmenstein_error>  (793) 


$$$$
C5758-P65
     RDKit          3D

 40 42  0  0  0  0  0  0  0  0999 V2000
   -2.6769  -15.8142   14.8245 C   0  0  0  0  0  0  0  0  0  0  0  0
   -3.1237  -14.4973   15.4731 C   0  0  0  0  0  0  0  0  0  0  0  0
   -2.1067  -14.0480   16.5205 C   0  0  0  0  0  0  0  0  0  0  0  0
   -4.5096  -14.5364   15.9649 N   0  0  0  0  0  0  0  0  0  0  0  0
   -5.1587  -15.6282   16.4542 C   0  0  0  0  0  0  0  0  0  0  0  0
   -6.4849  -15.3405   16.2871 C   0  0  0  0  0  0  0  0  0  0  0  0
   -6.6510  -14.0342   15.9425 N   0  0  0  0  0  0  0  0  0  0  0  0
   -5.4513  -13.5428   15.6294 C   0  0  0  0  0  0  0  0  0  0  0  0
   -5.1245  -12.0959   15.2136 C   0  0  0  0  0  0  0  0  0  0  0  0
   -4.1629  -11.6365   15.7037 O   0  0  0  0  0  0  0  0  0  0  0  0
   -6.1971  -11.4407   14.2774 N   0  0  0  0  0  0  0  0  0  0  0  0
   -6.3537  -10.0304   13.8264 C   0  0  0  0  0  0  0  0  0  0  0  0
   -5.9352   -9.4368   12.4546 C   0  0  0  0  0  0  0  0  0  0  0  0
   -6.6394   -9.4757   11.3215 N   0  0  0  0  0  0  0  0  0  0  0  0
   -6.2057   -8.4881   10.4715 N   0  0  0  0  0  0  0  0  0  0  0  0
   -5.2921   -7.8261   11.1279 C   0  0  0  0  0  0  0  0  0  0  0  0
   -4.9756   -8.4533   12.2832 N   0  0  0  0  0  0  0  0  0  0  0  0
   -4.0249   -7.8650   13.2121 C   0  0  0  0  0  0  0  0  0  0  0  0
   -3.6301   -6.4174   12.8845 C   0  0  0  0  0  0  0  0  0  0  0  0
   -4.7445   -5.7944   12.2111 N   0  0  0  0  0  0  0  0  0  0  0  0
   -4.8801   -6.4543   10.9362 C   0  0  0  0  0  0  0  0  0  0  0  0
   -2.5819  -16.6192   15.5611 H   0  0  0  0  0  0  0  0  0  0  0  0
   -1.7012  -15.6918   14.3417 H   0  0  0  0  0  0  0  0  0  0  0  0
   -3.3904  -16.1375   14.0586 H   0  0  0  0  0  0  0  0  0  0  0  0
   -3.1156  -13.7552   14.6650 H   0  0  0  0  0  0  0  0  0  0  0  0
   -1.1471  -13.8202   16.0429 H   0  0  0  0  0  0  0  0  0  0  0  0
   -2.4361  -13.1481   17.0481 H   0  0  0  0  0  0  0  0  0  0  0  0
   -1.9169  -14.8294   17.2621 H   0  0  0  0  0  0  0  0  0  0  0  0
   -4.5917  -16.4938   16.7580 H   0  0  0  0  0  0  0  0  0  0  0  0
   -7.3561  -15.9571   16.4543 H   0  0  0  0  0  0  0  0  0  0  0  0
   -6.8565  -12.1492   13.9681 H   0  0  0  0  0  0  0  0  0  0  0  0
   -5.8805   -9.4382   14.6152 H   0  0  0  0  0  0  0  0  0  0  0  0
   -7.4310   -9.8393   13.9132 H   0  0  0  0  0  0  0  0  0  0  0  0
   -3.1452   -8.5168   13.2279 H   0  0  0  0  0  0  0  0  0  0  0  0
   -4.4890   -7.8843   14.2030 H   0  0  0  0  0  0  0  0  0  0  0  0
   -2.7151   -6.3936   12.2801 H   0  0  0  0  0  0  0  0  0  0  0  0
   -3.3942   -5.8840   13.8120 H   0  0  0  0  0  0  0  0  0  0  0  0
   -5.6066   -5.8940   12.7481 H   0  0  0  0  0  0  0  0  0  0  0  0
   -3.9743   -6.2514   10.3763 H   0  0  0  0  0  0  0  0  0  0  0  0
   -5.7435   -6.1404   10.3702 H   0  0  0  0  0  0  0  0  0  0  0  0
  1  2  1  0
  2  3  1  0
  2  4  1  0
  4  5  1  0
  5  6  2  0
  6  7  1  0
  7  8  2  0
  8  9  1  0
  9 10  2  0
  9 11  1  0
 11 12  1  0
 12 13  1  0
 13 14  2  0
 14 15  1  0
 15 16  2  0
 16 17  1  0
 17 18  1  0
 18 19  1  0
 19 20  1  0
 20 21  1  0
  8  4  1  0
 17 13  1  0
 21 16  1  0
  1 22  1  0
  1 23  1  0
  1 24  1  0
  2 25  1  0
  3 26  1  0
  3 27  1  0
  3 28  1  0
  5 29  1  0
  6 30  1  0
 11 31  1  0
 12 32  1  0
 12 33  1  0
 18 34  1  0
 18 35  1  0
 19 36  1  0
 19 37  1  0
 20 38  1  0
 21 39  1  0
 21 40  1  0
M  END
>  <Energy>  (794) 
69.253481856582212

>  <compound_id>  (794) 
5758

>  <target_id>  (794) 
1

>  <reference_id>  (794) 
65

>  <inspiration_ids>  (794) 
[115, 65]

>  <energy_score>  (794) 
34.804733928148266

>  <distance_score>  (794) 
13.502595111257603

>  <path>  (794) 
/opt/xchem-fragalysis-2/maxwin/BulkDock/SCRATCH/511018/C5758-P65/C5758-P65.minimised.mol

>  <scratch_subdir>  (794) 
/opt/xchem-fragalysis-2/maxwin/BulkDock/SCRATCH/511018/C5758-P65

>  <fragmenstein_runtime>  (794) 
25.943699598312378

>  <fragmenstein_outcome>  (794) 
too moved

>  <fragmenstein_mode>  (794) 
expansion

>  <fragmenstein_error>  (794) 


$$$$
C5753-P115
     RDKit          3D

 44 46  0  0  0  0  0  0  0  0999 V2000
   -9.5430  -23.2765   18.7726 C   0  0  0  0  0  0  0  0  0  0  0  0
   -9.5931  -22.2191   19.8786 C   0  0  0  0  0  0  0  0  0  0  0  0
  -11.0273  -22.0457   20.3823 C   0  0  0  0  0  0  0  0  0  0  0  0
   -8.5924  -22.5341   21.0246 C   0  0  0  0  0  0  0  0  0  0  0  0
   -7.3796  -21.7545   20.8715 N   0  0  0  0  0  0  0  0  0  0  0  0
   -6.4115  -22.0415   19.9548 C   0  0  0  0  0  0  0  0  0  0  0  0
   -5.8860  -20.9364   19.4753 N   0  0  0  0  0  0  0  0  0  0  0  0
   -6.4395  -19.9170   20.2281 C   0  0  0  0  0  0  0  0  0  0  0  0
   -6.1866  -18.1837   19.9358 S   0  0  0  0  0  0  0  0  0  0  0  0
   -6.9102  -17.6647   21.0641 O   0  0  0  0  0  0  0  0  0  0  0  0
   -4.7503  -18.1206   19.7776 O   0  0  0  0  0  0  0  0  0  0  0  0
   -6.9174  -17.6901   18.4294 N   0  0  0  0  0  0  0  0  0  0  0  0
   -7.9796  -16.3776   17.7792 C   0  0  0  0  0  0  0  0  0  0  0  0
   -7.7040  -14.7330   17.5317 C   0  0  0  0  0  0  0  0  0  0  0  0
   -8.1080  -13.6373   18.4532 N   0  0  0  0  0  0  0  0  0  0  0  0
   -8.2225  -12.4226   17.8466 N   0  0  0  0  0  0  0  0  0  0  0  0
   -8.1639  -12.6523   16.5546 C   0  0  0  0  0  0  0  0  0  0  0  0
   -7.3263  -14.0343   16.3483 N   0  0  0  0  0  0  0  0  0  0  0  0
   -7.7736  -14.5602   14.8373 C   0  0  0  0  0  0  0  0  0  0  0  0
   -7.8380  -13.2197   13.3893 C   0  0  0  0  0  0  0  0  0  0  0  0
   -9.0580  -12.5943   13.6417 N   0  0  0  0  0  0  0  0  0  0  0  0
   -9.0232  -11.9562   15.0033 C   0  0  0  0  0  0  0  0  0  0  0  0
   -7.2415  -20.4490   21.2256 C   0  0  0  0  0  0  0  0  0  0  0  0
   -9.8343  -24.2639   19.1437 H   0  0  0  0  0  0  0  0  0  0  0  0
  -10.2235  -23.0121   17.9559 H   0  0  0  0  0  0  0  0  0  0  0  0
   -8.5369  -23.3574   18.3498 H   0  0  0  0  0  0  0  0  0  0  0  0
   -9.3191  -21.2670   19.4075 H   0  0  0  0  0  0  0  0  0  0  0  0
  -11.6575  -21.6262   19.5900 H   0  0  0  0  0  0  0  0  0  0  0  0
  -11.0676  -21.3616   21.2357 H   0  0  0  0  0  0  0  0  0  0  0  0
  -11.4824  -22.9910   20.6808 H   0  0  0  0  0  0  0  0  0  0  0  0
   -8.2627  -23.5768   21.0189 H   0  0  0  0  0  0  0  0  0  0  0  0
   -9.0019  -22.2942   22.0115 H   0  0  0  0  0  0  0  0  0  0  0  0
   -6.2135  -23.0420   19.5905 H   0  0  0  0  0  0  0  0  0  0  0  0
   -7.2047  -18.5516   17.9740 H   0  0  0  0  0  0  0  0  0  0  0  0
   -8.3397  -16.8323   16.8727 H   0  0  0  0  0  0  0  0  0  0  0  0
   -8.6907  -16.1299   18.5500 H   0  0  0  0  0  0  0  0  0  0  0  0
   -7.4011  -15.6053   14.8422 H   0  0  0  0  0  0  0  0  0  0  0  0
   -8.8654  -14.6724   14.7241 H   0  0  0  0  0  0  0  0  0  0  0  0
   -7.3694  -12.2121   13.3535 H   0  0  0  0  0  0  0  0  0  0  0  0
   -6.8735  -13.3289   12.8230 H   0  0  0  0  0  0  0  0  0  0  0  0
   -9.2599  -11.8734   12.9450 H   0  0  0  0  0  0  0  0  0  0  0  0
  -10.0626  -11.9823   15.2688 H   0  0  0  0  0  0  0  0  0  0  0  0
   -8.6838  -10.9374   14.7739 H   0  0  0  0  0  0  0  0  0  0  0  0
   -7.8196  -19.9672   21.9976 H   0  0  0  0  0  0  0  0  0  0  0  0
  1  2  1  0
  2  3  1  0
  2  4  1  0
  4  5  1  0
  5  6  1  0
  6  7  2  0
  7  8  1  0
  8  9  1  0
  9 10  2  0
  9 11  2  0
  9 12  1  0
 12 13  1  0
 13 14  1  0
 14 15  2  0
 15 16  1  0
 16 17  2  0
 17 18  1  0
 18 19  1  0
 19 20  1  0
 20 21  1  0
 21 22  1  0
  8 23  2  0
 23  5  1  0
 18 14  1  0
 22 17  1  0
  1 24  1  0
  1 25  1  0
  1 26  1  0
  2 27  1  0
  3 28  1  0
  3 29  1  0
  3 30  1  0
  4 31  1  0
  4 32  1  0
  6 33  1  0
 12 34  1  0
 13 35  1  0
 13 36  1  0
 19 37  1  0
 19 38  1  0
 20 39  1  0
 20 40  1  0
 21 41  1  0
 22 42  1  0
 22 43  1  0
 23 44  1  0
M  END
>  <Energy>  (795) 
341.09109266510251

>  <compound_id>  (795) 
5753

>  <target_id>  (795) 
1

>  <reference_id>  (795) 
115

>  <inspiration_ids>  (795) 
[115, 65]

>  <energy_score>  (795) 
266.68764382125653

>  <distance_score>  (795) 
14.657659252371396

>  <path>  (795) 
/opt/xchem-fragalysis-2/maxwin/BulkDock/SCRATCH/511018/C5753-P115/C5753-P115.minimised.mol

>  <scratch_subdir>  (795) 
/opt/xchem-fragalysis-2/maxwin/BulkDock/SCRATCH/511018/C5753-P115

>  <fragmenstein_runtime>  (795) 
23.085727214813232

>  <fragmenstein_outcome>  (795) 
too moved

>  <fragmenstein_mode>  (795) 
expansion

>  <fragmenstein_error>  (795) 


$$$$
C5753-P65
     RDKit          3D

 44 46  0  0  0  0  0  0  0  0999 V2000
  -12.1585  -21.5436   18.2057 C   0  0  0  0  0  0  0  0  0  0  0  0
  -13.1152  -21.8817   17.0603 C   0  0  0  0  0  0  0  0  0  0  0  0
  -14.1687  -22.8734   17.5648 C   0  0  0  0  0  0  0  0  0  0  0  0
  -13.8085  -20.6230   16.5037 C   0  0  0  0  0  0  0  0  0  0  0  0
  -13.0506  -19.7784   15.5969 N   0  0  0  0  0  0  0  0  0  0  0  0
  -11.7495  -19.8880   15.2104 C   0  0  0  0  0  0  0  0  0  0  0  0
  -11.4408  -19.0012   14.2805 N   0  0  0  0  0  0  0  0  0  0  0  0
  -12.5792  -18.2348   14.0633 C   0  0  0  0  0  0  0  0  0  0  0  0
  -12.7242  -16.7346   13.0162 S   0  0  0  0  0  0  0  0  0  0  0  0
  -13.3531  -17.2357   11.8100 O   0  0  0  0  0  0  0  0  0  0  0  0
  -13.4550  -15.8415   13.9007 O   0  0  0  0  0  0  0  0  0  0  0  0
  -11.3059  -15.7920   12.4872 N   0  0  0  0  0  0  0  0  0  0  0  0
  -11.5931  -14.6490   11.4227 C   0  0  0  0  0  0  0  0  0  0  0  0
  -10.5441  -13.5077   11.3343 C   0  0  0  0  0  0  0  0  0  0  0  0
   -9.6170  -13.2324   12.2393 N   0  0  0  0  0  0  0  0  0  0  0  0
   -8.9735  -12.0509   11.9224 N   0  0  0  0  0  0  0  0  0  0  0  0
   -9.4921  -11.6031   10.8070 C   0  0  0  0  0  0  0  0  0  0  0  0
  -10.4648  -12.4868   10.3900 N   0  0  0  0  0  0  0  0  0  0  0  0
  -11.2406  -12.2285    9.1947 C   0  0  0  0  0  0  0  0  0  0  0  0
  -10.5834  -11.1566    8.2934 C   0  0  0  0  0  0  0  0  0  0  0  0
  -10.1503   -9.9962    9.0706 N   0  0  0  0  0  0  0  0  0  0  0  0
   -9.1109  -10.3827   10.0394 C   0  0  0  0  0  0  0  0  0  0  0  0
  -13.5977  -18.7441   14.8655 C   0  0  0  0  0  0  0  0  0  0  0  0
  -12.6921  -21.0784   19.0418 H   0  0  0  0  0  0  0  0  0  0  0  0
  -11.3707  -20.8568   17.8862 H   0  0  0  0  0  0  0  0  0  0  0  0
  -11.6714  -22.4496   18.5825 H   0  0  0  0  0  0  0  0  0  0  0  0
  -12.5505  -22.3798   16.2630 H   0  0  0  0  0  0  0  0  0  0  0  0
  -14.7799  -22.4341   18.3607 H   0  0  0  0  0  0  0  0  0  0  0  0
  -13.6945  -23.7779   17.9605 H   0  0  0  0  0  0  0  0  0  0  0  0
  -14.8371  -23.1777   16.7523 H   0  0  0  0  0  0  0  0  0  0  0  0
  -14.6969  -20.9242   15.9330 H   0  0  0  0  0  0  0  0  0  0  0  0
  -14.1500  -19.9805   17.3231 H   0  0  0  0  0  0  0  0  0  0  0  0
  -11.0632  -20.6292   15.5976 H   0  0  0  0  0  0  0  0  0  0  0  0
  -10.8780  -15.3474   13.3035 H   0  0  0  0  0  0  0  0  0  0  0  0
  -12.5543  -14.1932   11.6832 H   0  0  0  0  0  0  0  0  0  0  0  0
  -11.6730  -15.1404   10.4476 H   0  0  0  0  0  0  0  0  0  0  0  0
  -11.3459  -13.1728    8.6513 H   0  0  0  0  0  0  0  0  0  0  0  0
  -12.2291  -11.8959    9.5311 H   0  0  0  0  0  0  0  0  0  0  0  0
   -9.7305  -11.5925    7.7582 H   0  0  0  0  0  0  0  0  0  0  0  0
  -11.3075  -10.8386    7.5356 H   0  0  0  0  0  0  0  0  0  0  0  0
   -9.7806   -9.2656    8.4667 H   0  0  0  0  0  0  0  0  0  0  0  0
   -8.1676  -10.5747    9.5151 H   0  0  0  0  0  0  0  0  0  0  0  0
   -8.9304   -9.5668   10.7402 H   0  0  0  0  0  0  0  0  0  0  0  0
  -14.6308  -18.4436   14.9716 H   0  0  0  0  0  0  0  0  0  0  0  0
  1  2  1  0
  2  3  1  0
  2  4  1  0
  4  5  1  0
  5  6  1  0
  6  7  2  0
  7  8  1  0
  8  9  1  0
  9 10  2  0
  9 11  2  0
  9 12  1  0
 12 13  1  0
 13 14  1  0
 14 15  2  0
 15 16  1  0
 16 17  2  0
 17 18  1  0
 18 19  1  0
 19 20  1  0
 20 21  1  0
 21 22  1  0
  8 23  2  0
 23  5  1  0
 18 14  1  0
 22 17  1  0
  1 24  1  0
  1 25  1  0
  1 26  1  0
  2 27  1  0
  3 28  1  0
  3 29  1  0
  3 30  1  0
  4 31  1  0
  4 32  1  0
  6 33  1  0
 12 34  1  0
 13 35  1  0
 13 36  1  0
 19 37  1  0
 19 38  1  0
 20 39  1  0
 20 40  1  0
 21 41  1  0
 22 42  1  0
 22 43  1  0
 23 44  1  0
M  END
>  <Energy>  (796) 
39.942339808659106

>  <compound_id>  (796) 
5753

>  <target_id>  (796) 
1

>  <reference_id>  (796) 
65

>  <inspiration_ids>  (796) 
[115, 65]

>  <energy_score>  (796) 
-34.46110903518877

>  <distance_score>  (796) 
14.802264273555796

>  <path>  (796) 
/opt/xchem-fragalysis-2/maxwin/BulkDock/SCRATCH/511018/C5753-P65/C5753-P65.minimised.mol

>  <scratch_subdir>  (796) 
/opt/xchem-fragalysis-2/maxwin/BulkDock/SCRATCH/511018/C5753-P65

>  <fragmenstein_runtime>  (796) 
30.701780796051025

>  <fragmenstein_outcome>  (796) 
too moved

>  <fragmenstein_mode>  (796) 
expansion

>  <fragmenstein_error>  (796) 


$$$$
C5762-P115
     RDKit          3D

 38 40  0  0  0  0  0  0  0  0999 V2000
   -7.0324  -11.3880   16.6063 C   0  0  0  0  0  0  0  0  0  0  0  0
   -6.5213  -12.1739   15.3924 C   0  0  0  0  0  0  0  0  0  0  0  0
   -5.8605  -11.2435   14.4312 N   0  0  0  0  0  0  0  0  0  0  0  0
   -6.8141  -10.4974   13.5730 C   0  0  0  0  0  0  0  0  0  0  0  0
   -6.1464   -9.4621   12.7249 C   0  0  0  0  0  0  0  0  0  0  0  0
   -6.1188   -9.4096   11.4049 N   0  0  0  0  0  0  0  0  0  0  0  0
   -5.4053   -8.2950   11.0322 N   0  0  0  0  0  0  0  0  0  0  0  0
   -4.9990   -7.6957   12.1252 C   0  0  0  0  0  0  0  0  0  0  0  0
   -5.5000   -8.3595   13.2041 N   0  0  0  0  0  0  0  0  0  0  0  0
   -5.3708   -7.8788   14.5589 C   0  0  0  0  0  0  0  0  0  0  0  0
   -4.3278   -6.7564   14.6713 C   0  0  0  0  0  0  0  0  0  0  0  0
   -4.3863   -5.8140   13.5502 N   0  0  0  0  0  0  0  0  0  0  0  0
   -4.1067   -6.5298   12.2919 C   0  0  0  0  0  0  0  0  0  0  0  0
   -5.5750  -13.2894   15.8745 C   0  0  0  0  0  0  0  0  0  0  0  0
   -4.6269  -13.1831   16.7947 N   0  0  0  0  0  0  0  0  0  0  0  0
   -3.9356  -14.3675   16.7760 C   0  0  0  0  0  0  0  0  0  0  0  0
   -4.5291  -15.2584   15.9278 C   0  0  0  0  0  0  0  0  0  0  0  0
   -5.5567  -14.5685   15.3456 N   0  0  0  0  0  0  0  0  0  0  0  0
   -6.2948  -15.0143   14.1875 C   0  0  0  0  0  0  0  0  0  0  0  0
   -7.7987  -10.6593   16.3238 H   0  0  0  0  0  0  0  0  0  0  0  0
   -7.4809  -12.0596   17.3469 H   0  0  0  0  0  0  0  0  0  0  0  0
   -6.2205  -10.8461   17.1057 H   0  0  0  0  0  0  0  0  0  0  0  0
   -7.3801  -12.6492   14.9033 H   0  0  0  0  0  0  0  0  0  0  0  0
   -5.2467  -11.7868   13.8238 H   0  0  0  0  0  0  0  0  0  0  0  0
   -7.5686   -9.9938   14.1871 H   0  0  0  0  0  0  0  0  0  0  0  0
   -7.3417  -11.2055   12.9230 H   0  0  0  0  0  0  0  0  0  0  0  0
   -6.3602   -7.5112   14.8543 H   0  0  0  0  0  0  0  0  0  0  0  0
   -5.0923   -8.7143   15.2067 H   0  0  0  0  0  0  0  0  0  0  0  0
   -3.3204   -7.1883   14.7292 H   0  0  0  0  0  0  0  0  0  0  0  0
   -4.4817   -6.2130   15.6102 H   0  0  0  0  0  0  0  0  0  0  0  0
   -5.3317   -5.4308   13.4891 H   0  0  0  0  0  0  0  0  0  0  0  0
   -3.0610   -6.8572   12.3038 H   0  0  0  0  0  0  0  0  0  0  0  0
   -4.2137   -5.8658   11.4378 H   0  0  0  0  0  0  0  0  0  0  0  0
   -3.0422  -14.5137   17.3689 H   0  0  0  0  0  0  0  0  0  0  0  0
   -4.2393  -16.2552   15.6397 H   0  0  0  0  0  0  0  0  0  0  0  0
   -5.8417  -15.9269   13.7928 H   0  0  0  0  0  0  0  0  0  0  0  0
   -6.2512  -14.2399   13.4174 H   0  0  0  0  0  0  0  0  0  0  0  0
   -7.3269  -15.2032   14.4809 H   0  0  0  0  0  0  0  0  0  0  0  0
  1  2  1  0
  2  3  1  0
  3  4  1  0
  4  5  1  0
  5  6  2  0
  6  7  1  0
  7  8  2  0
  8  9  1  0
  9 10  1  0
 10 11  1  0
 11 12  1  0
 12 13  1  0
  2 14  1  0
 14 15  2  0
 15 16  1  0
 16 17  2  0
 17 18  1  0
 18 19  1  0
  9  5  1  0
 18 14  1  0
 13  8  1  0
  1 20  1  0
  1 21  1  0
  1 22  1  0
  2 23  1  0
  3 24  1  0
  4 25  1  0
  4 26  1  0
 10 27  1  0
 10 28  1  0
 11 29  1  0
 11 30  1  0
 12 31  1  0
 13 32  1  0
 13 33  1  0
 16 34  1  0
 17 35  1  0
 19 36  1  0
 19 37  1  0
 19 38  1  0
M  END
>  <Energy>  (797) 
27.64764093973589

>  <compound_id>  (797) 
5762

>  <target_id>  (797) 
1

>  <reference_id>  (797) 
115

>  <inspiration_ids>  (797) 
[115, 65]

>  <energy_score>  (797) 
-37.101246286251694

>  <distance_score>  (797) 
14.056035714636364

>  <path>  (797) 
/opt/xchem-fragalysis-2/maxwin/BulkDock/SCRATCH/511018/C5762-P115/C5762-P115.minimised.mol

>  <scratch_subdir>  (797) 
/opt/xchem-fragalysis-2/maxwin/BulkDock/SCRATCH/511018/C5762-P115

>  <fragmenstein_runtime>  (797) 
26.18710231781006

>  <fragmenstein_outcome>  (797) 
too moved

>  <fragmenstein_mode>  (797) 
expansion

>  <fragmenstein_error>  (797) 


$$$$
C5762-P65
     RDKit          3D

 38 40  0  0  0  0  0  0  0  0999 V2000
   -9.4971  -15.7328   19.2084 C   0  0  0  0  0  0  0  0  0  0  0  0
  -11.3361  -15.7588   19.6152 C   0  0  0  0  0  0  0  0  0  0  0  0
  -10.5506  -13.9187   19.3646 N   0  0  0  0  0  0  0  0  0  0  0  0
   -9.7098  -12.5981   18.4903 C   0  0  0  0  0  0  0  0  0  0  0  0
  -10.1111  -11.4052   17.5025 C   0  0  0  0  0  0  0  0  0  0  0  0
  -11.2657  -10.7852   17.3053 N   0  0  0  0  0  0  0  0  0  0  0  0
  -11.0761   -9.6711   16.4970 N   0  0  0  0  0  0  0  0  0  0  0  0
   -9.8017   -9.6043   16.2046 C   0  0  0  0  0  0  0  0  0  0  0  0
   -9.1610  -10.6731   16.7744 N   0  0  0  0  0  0  0  0  0  0  0  0
   -7.7210  -10.8288   16.6700 C   0  0  0  0  0  0  0  0  0  0  0  0
   -7.0768   -9.8692   15.6357 C   0  0  0  0  0  0  0  0  0  0  0  0
   -7.6477   -8.5136   15.6627 N   0  0  0  0  0  0  0  0  0  0  0  0
   -9.0887   -8.6113   15.3619 C   0  0  0  0  0  0  0  0  0  0  0  0
  -12.7989  -17.0991   20.3926 C   0  0  0  0  0  0  0  0  0  0  0  0
  -13.2723  -17.0246   22.0518 N   0  0  0  0  0  0  0  0  0  0  0  0
  -13.4557  -18.7245   23.1061 C   0  0  0  0  0  0  0  0  0  0  0  0
  -12.3971  -20.0922   22.0402 C   0  0  0  0  0  0  0  0  0  0  0  0
  -12.3187  -19.1736   20.1978 N   0  0  0  0  0  0  0  0  0  0  0  0
  -11.4049  -20.7864   20.3524 C   0  0  0  0  0  0  0  0  0  0  0  0
   -8.9184  -16.0984   20.0291 H   0  0  0  0  0  0  0  0  0  0  0  0
   -9.1703  -15.9914   18.1859 H   0  0  0  0  0  0  0  0  0  0  0  0
   -8.9734  -14.7905   19.2485 H   0  0  0  0  0  0  0  0  0  0  0  0
  -11.1667  -16.7808   19.0903 H   0  0  0  0  0  0  0  0  0  0  0  0
  -10.1077  -13.7655   20.2773 H   0  0  0  0  0  0  0  0  0  0  0  0
   -9.4851  -11.9453   19.2685 H   0  0  0  0  0  0  0  0  0  0  0  0
   -8.6579  -12.9038   18.3232 H   0  0  0  0  0  0  0  0  0  0  0  0
   -7.5145  -11.8694   16.4013 H   0  0  0  0  0  0  0  0  0  0  0  0
   -7.3195  -10.6288   17.6700 H   0  0  0  0  0  0  0  0  0  0  0  0
   -7.1897  -10.2879   14.6273 H   0  0  0  0  0  0  0  0  0  0  0  0
   -5.9992   -9.8112   15.8247 H   0  0  0  0  0  0  0  0  0  0  0  0
   -7.5500   -8.1154   16.5968 H   0  0  0  0  0  0  0  0  0  0  0  0
   -9.5463   -7.6248   15.4822 H   0  0  0  0  0  0  0  0  0  0  0  0
   -9.2030   -8.9366   14.3257 H   0  0  0  0  0  0  0  0  0  0  0  0
  -13.8170  -18.5618   24.0897 H   0  0  0  0  0  0  0  0  0  0  0  0
  -12.4255  -21.2025   22.1541 H   0  0  0  0  0  0  0  0  0  0  0  0
  -10.4243  -20.7748   19.8885 H   0  0  0  0  0  0  0  0  0  0  0  0
  -10.9834  -21.0985   21.3228 H   0  0  0  0  0  0  0  0  0  0  0  0
  -12.0533  -21.5785   19.9853 H   0  0  0  0  0  0  0  0  0  0  0  0
  1  2  1  0
  2  3  1  0
  3  4  1  0
  4  5  1  0
  5  6  2  0
  6  7  1  0
  7  8  2  0
  8  9  1  0
  9 10  1  0
 10 11  1  0
 11 12  1  0
 12 13  1  0
  2 14  1  0
 14 15  2  0
 15 16  1  0
 16 17  2  0
 17 18  1  0
 18 19  1  0
  9  5  1  0
 18 14  1  0
 13  8  1  0
  1 20  1  0
  1 21  1  0
  1 22  1  0
  2 23  1  0
  3 24  1  0
  4 25  1  0
  4 26  1  0
 10 27  1  0
 10 28  1  0
 11 29  1  0
 11 30  1  0
 12 31  1  0
 13 32  1  0
 13 33  1  0
 16 34  1  0
 17 35  1  0
 19 36  1  0
 19 37  1  0
 19 38  1  0
M  END
>  <Energy>  (798) 
1425.3326456403347

>  <compound_id>  (798) 
5762

>  <target_id>  (798) 
1

>  <reference_id>  (798) 
65

>  <inspiration_ids>  (798) 
[115, 65]

>  <energy_score>  (798) 
1360.5837584143724

>  <distance_score>  (798) 
13.196354580985135

>  <path>  (798) 
/opt/xchem-fragalysis-2/maxwin/BulkDock/SCRATCH/511018/C5762-P65/C5762-P65.minimised.mol

>  <scratch_subdir>  (798) 
/opt/xchem-fragalysis-2/maxwin/BulkDock/SCRATCH/511018/C5762-P65

>  <fragmenstein_runtime>  (798) 
35.68092727661133

>  <fragmenstein_outcome>  (798) 
too moved

>  <fragmenstein_mode>  (798) 
expansion

>  <fragmenstein_error>  (798) 


$$$$
C5762-P115
     RDKit          3D

 38 40  0  0  0  0  0  0  0  0999 V2000
   -7.0324  -11.3880   16.6063 C   0  0  0  0  0  0  0  0  0  0  0  0
   -6.5213  -12.1739   15.3924 C   0  0  0  0  0  0  0  0  0  0  0  0
   -5.8605  -11.2435   14.4312 N   0  0  0  0  0  0  0  0  0  0  0  0
   -6.8141  -10.4974   13.5730 C   0  0  0  0  0  0  0  0  0  0  0  0
   -6.1464   -9.4621   12.7249 C   0  0  0  0  0  0  0  0  0  0  0  0
   -6.1188   -9.4096   11.4049 N   0  0  0  0  0  0  0  0  0  0  0  0
   -5.4053   -8.2950   11.0322 N   0  0  0  0  0  0  0  0  0  0  0  0
   -4.9990   -7.6957   12.1252 C   0  0  0  0  0  0  0  0  0  0  0  0
   -5.5000   -8.3595   13.2041 N   0  0  0  0  0  0  0  0  0  0  0  0
   -5.3708   -7.8788   14.5589 C   0  0  0  0  0  0  0  0  0  0  0  0
   -4.3278   -6.7564   14.6713 C   0  0  0  0  0  0  0  0  0  0  0  0
   -4.3863   -5.8140   13.5502 N   0  0  0  0  0  0  0  0  0  0  0  0
   -4.1067   -6.5298   12.2919 C   0  0  0  0  0  0  0  0  0  0  0  0
   -5.5750  -13.2894   15.8745 C   0  0  0  0  0  0  0  0  0  0  0  0
   -4.6269  -13.1831   16.7947 N   0  0  0  0  0  0  0  0  0  0  0  0
   -3.9356  -14.3675   16.7760 C   0  0  0  0  0  0  0  0  0  0  0  0
   -4.5291  -15.2584   15.9278 C   0  0  0  0  0  0  0  0  0  0  0  0
   -5.5567  -14.5685   15.3456 N   0  0  0  0  0  0  0  0  0  0  0  0
   -6.2948  -15.0143   14.1875 C   0  0  0  0  0  0  0  0  0  0  0  0
   -7.7987  -10.6593   16.3238 H   0  0  0  0  0  0  0  0  0  0  0  0
   -7.4809  -12.0596   17.3469 H   0  0  0  0  0  0  0  0  0  0  0  0
   -6.2205  -10.8461   17.1057 H   0  0  0  0  0  0  0  0  0  0  0  0
   -7.3801  -12.6492   14.9033 H   0  0  0  0  0  0  0  0  0  0  0  0
   -5.2467  -11.7868   13.8238 H   0  0  0  0  0  0  0  0  0  0  0  0
   -7.5686   -9.9938   14.1871 H   0  0  0  0  0  0  0  0  0  0  0  0
   -7.3417  -11.2055   12.9230 H   0  0  0  0  0  0  0  0  0  0  0  0
   -6.3602   -7.5112   14.8543 H   0  0  0  0  0  0  0  0  0  0  0  0
   -5.0923   -8.7143   15.2067 H   0  0  0  0  0  0  0  0  0  0  0  0
   -3.3204   -7.1883   14.7292 H   0  0  0  0  0  0  0  0  0  0  0  0
   -4.4817   -6.2130   15.6102 H   0  0  0  0  0  0  0  0  0  0  0  0
   -5.3317   -5.4308   13.4891 H   0  0  0  0  0  0  0  0  0  0  0  0
   -3.0610   -6.8572   12.3038 H   0  0  0  0  0  0  0  0  0  0  0  0
   -4.2137   -5.8658   11.4378 H   0  0  0  0  0  0  0  0  0  0  0  0
   -3.0422  -14.5137   17.3689 H   0  0  0  0  0  0  0  0  0  0  0  0
   -4.2393  -16.2552   15.6397 H   0  0  0  0  0  0  0  0  0  0  0  0
   -5.8417  -15.9269   13.7928 H   0  0  0  0  0  0  0  0  0  0  0  0
   -6.2512  -14.2399   13.4174 H   0  0  0  0  0  0  0  0  0  0  0  0
   -7.3269  -15.2032   14.4809 H   0  0  0  0  0  0  0  0  0  0  0  0
  1  2  1  0
  2  3  1  0
  3  4  1  0
  4  5  1  0
  5  6  2  0
  6  7  1  0
  7  8  2  0
  8  9  1  0
  9 10  1  0
 10 11  1  0
 11 12  1  0
 12 13  1  0
  2 14  1  0
 14 15  2  0
 15 16  1  0
 16 17  2  0
 17 18  1  0
 18 19  1  0
  9  5  1  0
 18 14  1  0
 13  8  1  0
  1 20  1  0
  1 21  1  0
  1 22  1  0
  2 23  1  0
  3 24  1  0
  4 25  1  0
  4 26  1  0
 10 27  1  0
 10 28  1  0
 11 29  1  0
 11 30  1  0
 12 31  1  0
 13 32  1  0
 13 33  1  0
 16 34  1  0
 17 35  1  0
 19 36  1  0
 19 37  1  0
 19 38  1  0
M  END
>  <Energy>  (799) 
27.64764093973589

>  <compound_id>  (799) 
5762

>  <target_id>  (799) 
1

>  <reference_id>  (799) 
115

>  <inspiration_ids>  (799) 
[115, 65]

>  <energy_score>  (799) 
-37.101246286251694

>  <distance_score>  (799) 
14.056035714636364

>  <path>  (799) 
/opt/xchem-fragalysis-2/maxwin/BulkDock/SCRATCH/511018/C5762-P115/C5762-P115.minimised.mol

>  <scratch_subdir>  (799) 
/opt/xchem-fragalysis-2/maxwin/BulkDock/SCRATCH/511018/C5762-P115

>  <fragmenstein_runtime>  (799) 
26.200977087020874

>  <fragmenstein_outcome>  (799) 
too moved

>  <fragmenstein_mode>  (799) 
expansion

>  <fragmenstein_error>  (799) 


$$$$
C5762-P65
     RDKit          3D

 38 40  0  0  0  0  0  0  0  0999 V2000
   -9.4971  -15.7328   19.2084 C   0  0  0  0  0  0  0  0  0  0  0  0
  -11.3361  -15.7588   19.6152 C   0  0  0  0  0  0  0  0  0  0  0  0
  -10.5506  -13.9187   19.3646 N   0  0  0  0  0  0  0  0  0  0  0  0
   -9.7098  -12.5981   18.4903 C   0  0  0  0  0  0  0  0  0  0  0  0
  -10.1111  -11.4052   17.5025 C   0  0  0  0  0  0  0  0  0  0  0  0
  -11.2657  -10.7852   17.3053 N   0  0  0  0  0  0  0  0  0  0  0  0
  -11.0761   -9.6711   16.4970 N   0  0  0  0  0  0  0  0  0  0  0  0
   -9.8017   -9.6043   16.2046 C   0  0  0  0  0  0  0  0  0  0  0  0
   -9.1610  -10.6731   16.7744 N   0  0  0  0  0  0  0  0  0  0  0  0
   -7.7210  -10.8288   16.6700 C   0  0  0  0  0  0  0  0  0  0  0  0
   -7.0768   -9.8692   15.6357 C   0  0  0  0  0  0  0  0  0  0  0  0
   -7.6477   -8.5136   15.6627 N   0  0  0  0  0  0  0  0  0  0  0  0
   -9.0887   -8.6113   15.3619 C   0  0  0  0  0  0  0  0  0  0  0  0
  -12.7989  -17.0991   20.3926 C   0  0  0  0  0  0  0  0  0  0  0  0
  -13.2723  -17.0246   22.0518 N   0  0  0  0  0  0  0  0  0  0  0  0
  -13.4557  -18.7245   23.1061 C   0  0  0  0  0  0  0  0  0  0  0  0
  -12.3971  -20.0922   22.0402 C   0  0  0  0  0  0  0  0  0  0  0  0
  -12.3187  -19.1736   20.1978 N   0  0  0  0  0  0  0  0  0  0  0  0
  -11.4049  -20.7864   20.3524 C   0  0  0  0  0  0  0  0  0  0  0  0
   -8.9184  -16.0984   20.0291 H   0  0  0  0  0  0  0  0  0  0  0  0
   -9.1703  -15.9914   18.1859 H   0  0  0  0  0  0  0  0  0  0  0  0
   -8.9734  -14.7905   19.2485 H   0  0  0  0  0  0  0  0  0  0  0  0
  -11.1667  -16.7808   19.0903 H   0  0  0  0  0  0  0  0  0  0  0  0
  -10.1077  -13.7655   20.2773 H   0  0  0  0  0  0  0  0  0  0  0  0
   -9.4851  -11.9453   19.2685 H   0  0  0  0  0  0  0  0  0  0  0  0
   -8.6579  -12.9038   18.3232 H   0  0  0  0  0  0  0  0  0  0  0  0
   -7.5145  -11.8694   16.4013 H   0  0  0  0  0  0  0  0  0  0  0  0
   -7.3195  -10.6288   17.6700 H   0  0  0  0  0  0  0  0  0  0  0  0
   -7.1897  -10.2879   14.6273 H   0  0  0  0  0  0  0  0  0  0  0  0
   -5.9992   -9.8112   15.8247 H   0  0  0  0  0  0  0  0  0  0  0  0
   -7.5500   -8.1154   16.5968 H   0  0  0  0  0  0  0  0  0  0  0  0
   -9.5463   -7.6248   15.4822 H   0  0  0  0  0  0  0  0  0  0  0  0
   -9.2030   -8.9366   14.3257 H   0  0  0  0  0  0  0  0  0  0  0  0
  -13.8170  -18.5618   24.0897 H   0  0  0  0  0  0  0  0  0  0  0  0
  -12.4255  -21.2025   22.1541 H   0  0  0  0  0  0  0  0  0  0  0  0
  -10.4243  -20.7748   19.8885 H   0  0  0  0  0  0  0  0  0  0  0  0
  -10.9834  -21.0985   21.3228 H   0  0  0  0  0  0  0  0  0  0  0  0
  -12.0533  -21.5785   19.9853 H   0  0  0  0  0  0  0  0  0  0  0  0
  1  2  1  0
  2  3  1  0
  3  4  1  0
  4  5  1  0
  5  6  2  0
  6  7  1  0
  7  8  2  0
  8  9  1  0
  9 10  1  0
 10 11  1  0
 11 12  1  0
 12 13  1  0
  2 14  1  0
 14 15  2  0
 15 16  1  0
 16 17  2  0
 17 18  1  0
 18 19  1  0
  9  5  1  0
 18 14  1  0
 13  8  1  0
  1 20  1  0
  1 21  1  0
  1 22  1  0
  2 23  1  0
  3 24  1  0
  4 25  1  0
  4 26  1  0
 10 27  1  0
 10 28  1  0
 11 29  1  0
 11 30  1  0
 12 31  1  0
 13 32  1  0
 13 33  1  0
 16 34  1  0
 17 35  1  0
 19 36  1  0
 19 37  1  0
 19 38  1  0
M  END
>  <Energy>  (800) 
1425.3326456403347

>  <compound_id>  (800) 
5762

>  <target_id>  (800) 
1

>  <reference_id>  (800) 
65

>  <inspiration_ids>  (800) 
[115, 65]

>  <energy_score>  (800) 
1360.5837584143724

>  <distance_score>  (800) 
13.196354580985135

>  <path>  (800) 
/opt/xchem-fragalysis-2/maxwin/BulkDock/SCRATCH/511018/C5762-P65/C5762-P65.minimised.mol

>  <scratch_subdir>  (800) 
/opt/xchem-fragalysis-2/maxwin/BulkDock/SCRATCH/511018/C5762-P65

>  <fragmenstein_runtime>  (800) 
25.46549129486084

>  <fragmenstein_outcome>  (800) 
too moved

>  <fragmenstein_mode>  (800) 
expansion

>  <fragmenstein_error>  (800) 


$$$$
C5754-P115
     RDKit          3D

 41 43  0  0  0  0  0  0  0  0999 V2000
   -4.5432  -15.2306   13.9556 C   0  0  0  0  0  0  0  0  0  0  0  0
   -4.9629  -14.8183   15.3545 C   0  0  0  0  0  0  0  0  0  0  0  0
   -3.8946  -14.9231   16.3276 N   0  0  0  0  0  0  0  0  0  0  0  0
   -3.6189  -16.0439   17.0798 C   0  0  0  0  0  0  0  0  0  0  0  0
   -2.6079  -15.6813   17.9281 C   0  0  0  0  0  0  0  0  0  0  0  0
   -2.2567  -14.3730   17.7011 N   0  0  0  0  0  0  0  0  0  0  0  0
   -2.9689  -13.9474   16.6539 C   0  0  0  0  0  0  0  0  0  0  0  0
   -2.5753  -12.6729   15.8256 C   0  0  0  0  0  0  0  0  0  0  0  0
   -1.3448  -13.0679   14.9820 C   0  0  0  0  0  0  0  0  0  0  0  0
   -3.6096  -11.9478   14.9949 N   0  0  0  0  0  0  0  0  0  0  0  0
   -3.0353  -10.7831   14.2282 C   0  0  0  0  0  0  0  0  0  0  0  0
   -3.9735   -9.7584   13.6156 C   0  0  0  0  0  0  0  0  0  0  0  0
   -5.2638   -9.8589   13.3465 N   0  0  0  0  0  0  0  0  0  0  0  0
   -5.6914   -8.6856   12.7499 N   0  0  0  0  0  0  0  0  0  0  0  0
   -4.6576   -7.8839   12.6591 C   0  0  0  0  0  0  0  0  0  0  0  0
   -3.5625   -8.5160   13.1760 N   0  0  0  0  0  0  0  0  0  0  0  0
   -2.2431   -7.9210   13.1641 C   0  0  0  0  0  0  0  0  0  0  0  0
   -2.2972   -6.4075   12.9022 C   0  0  0  0  0  0  0  0  0  0  0  0
   -3.2329   -6.0222   11.8431 N   0  0  0  0  0  0  0  0  0  0  0  0
   -4.6011   -6.4955   12.1473 C   0  0  0  0  0  0  0  0  0  0  0  0
   -4.1380  -16.2475   13.9445 H   0  0  0  0  0  0  0  0  0  0  0  0
   -3.7744  -14.5644   13.5549 H   0  0  0  0  0  0  0  0  0  0  0  0
   -5.4025  -15.1979   13.2786 H   0  0  0  0  0  0  0  0  0  0  0  0
   -5.3490  -13.7961   15.3711 H   0  0  0  0  0  0  0  0  0  0  0  0
   -5.7835  -15.4507   15.7047 H   0  0  0  0  0  0  0  0  0  0  0  0
   -4.1532  -16.9722   16.9738 H   0  0  0  0  0  0  0  0  0  0  0  0
   -2.1303  -16.2756   18.6953 H   0  0  0  0  0  0  0  0  0  0  0  0
   -2.2354  -11.9525   16.5832 H   0  0  0  0  0  0  0  0  0  0  0  0
   -0.8190  -12.1924   14.5884 H   0  0  0  0  0  0  0  0  0  0  0  0
   -1.6279  -13.7078   14.1396 H   0  0  0  0  0  0  0  0  0  0  0  0
   -0.6132  -13.6224   15.5818 H   0  0  0  0  0  0  0  0  0  0  0  0
   -4.3224  -11.5815   15.6277 H   0  0  0  0  0  0  0  0  0  0  0  0
   -2.4381  -11.1831   13.4008 H   0  0  0  0  0  0  0  0  0  0  0  0
   -2.3648  -10.2413   14.9061 H   0  0  0  0  0  0  0  0  0  0  0  0
   -1.7716   -8.1146   14.1324 H   0  0  0  0  0  0  0  0  0  0  0  0
   -1.6719   -8.4339   12.3831 H   0  0  0  0  0  0  0  0  0  0  0  0
   -1.2932   -6.0503   12.6478 H   0  0  0  0  0  0  0  0  0  0  0  0
   -2.5818   -5.8866   13.8255 H   0  0  0  0  0  0  0  0  0  0  0  0
   -2.9556   -6.4173   10.9279 H   0  0  0  0  0  0  0  0  0  0  0  0
   -5.0655   -5.8381   12.8891 H   0  0  0  0  0  0  0  0  0  0  0  0
   -5.1934   -6.4408   11.2361 H   0  0  0  0  0  0  0  0  0  0  0  0
  1  2  1  0
  2  3  1  0
  3  4  1  0
  4  5  2  0
  5  6  1  0
  6  7  2  0
  7  8  1  0
  8  9  1  0
  8 10  1  0
 10 11  1  0
 11 12  1  0
 12 13  2  0
 13 14  1  0
 14 15  2  0
 15 16  1  0
 16 17  1  0
 17 18  1  0
 18 19  1  0
 19 20  1  0
  7  3  1  0
 16 12  1  0
 20 15  1  0
  1 21  1  0
  1 22  1  0
  1 23  1  0
  2 24  1  0
  2 25  1  0
  4 26  1  0
  5 27  1  0
  8 28  1  0
  9 29  1  0
  9 30  1  0
  9 31  1  0
 10 32  1  0
 11 33  1  0
 11 34  1  0
 17 35  1  0
 17 36  1  0
 18 37  1  0
 18 38  1  0
 19 39  1  0
 20 40  1  0
 20 41  1  0
M  END
>  <Energy>  (801) 
38.070991615613075

>  <compound_id>  (801) 
5754

>  <target_id>  (801) 
1

>  <reference_id>  (801) 
115

>  <inspiration_ids>  (801) 
[115, 65]

>  <energy_score>  (801) 
-28.16175113223585

>  <distance_score>  (801) 
13.733101335616873

>  <path>  (801) 
/opt/xchem-fragalysis-2/maxwin/BulkDock/SCRATCH/511018/C5754-P115/C5754-P115.minimised.mol

>  <scratch_subdir>  (801) 
/opt/xchem-fragalysis-2/maxwin/BulkDock/SCRATCH/511018/C5754-P115

>  <fragmenstein_runtime>  (801) 
27.832107067108154

>  <fragmenstein_outcome>  (801) 
too moved

>  <fragmenstein_mode>  (801) 
expansion

>  <fragmenstein_error>  (801) 


$$$$
C5754-P65
     RDKit          3D

 41 43  0  0  0  0  0  0  0  0999 V2000
   -9.8108  -16.8584   25.8100 C   0  0  0  0  0  0  0  0  0  0  0  0
  -10.5194  -17.4763   24.3152 C   0  0  0  0  0  0  0  0  0  0  0  0
   -9.7487  -18.7347   23.1868 N   0  0  0  0  0  0  0  0  0  0  0  0
  -10.2776  -20.4097   23.0146 C   0  0  0  0  0  0  0  0  0  0  0  0
   -8.9398  -20.8504   22.2144 C   0  0  0  0  0  0  0  0  0  0  0  0
   -7.9064  -19.3698   21.8873 N   0  0  0  0  0  0  0  0  0  0  0  0
   -8.5024  -17.9936   21.8612 C   0  0  0  0  0  0  0  0  0  0  0  0
   -8.3561  -16.2345   20.6064 C   0  0  0  0  0  0  0  0  0  0  0  0
   -8.8396  -14.3087   20.2385 C   0  0  0  0  0  0  0  0  0  0  0  0
   -8.8534  -15.4275   18.8151 N   0  0  0  0  0  0  0  0  0  0  0  0
   -8.2219  -13.5438   18.2841 C   0  0  0  0  0  0  0  0  0  0  0  0
   -8.0630  -12.3441   16.9700 C   0  0  0  0  0  0  0  0  0  0  0  0
   -8.8935  -11.2844   16.9935 N   0  0  0  0  0  0  0  0  0  0  0  0
   -8.5682  -10.3654   16.0338 N   0  0  0  0  0  0  0  0  0  0  0  0
   -7.4815  -10.7924   15.4480 C   0  0  0  0  0  0  0  0  0  0  0  0
   -7.1088  -12.0154   16.0070 N   0  0  0  0  0  0  0  0  0  0  0  0
   -5.8652  -12.6296   15.6034 C   0  0  0  0  0  0  0  0  0  0  0  0
   -5.3199  -12.0388   14.2716 C   0  0  0  0  0  0  0  0  0  0  0  0
   -5.3518  -10.5685   14.2311 N   0  0  0  0  0  0  0  0  0  0  0  0
   -6.7428  -10.1055   14.3438 C   0  0  0  0  0  0  0  0  0  0  0  0
  -10.4795  -16.1847   26.3572 H   0  0  0  0  0  0  0  0  0  0  0  0
   -9.6423  -17.5975   26.5936 H   0  0  0  0  0  0  0  0  0  0  0  0
   -8.9026  -16.2749   25.6252 H   0  0  0  0  0  0  0  0  0  0  0  0
  -11.1458  -16.8627   23.6539 H   0  0  0  0  0  0  0  0  0  0  0  0
  -11.3792  -17.9603   24.6317 H   0  0  0  0  0  0  0  0  0  0  0  0
  -11.2739  -20.7524   23.2641 H   0  0  0  0  0  0  0  0  0  0  0  0
   -9.1522  -21.5820   21.4436 H   0  0  0  0  0  0  0  0  0  0  0  0
   -7.3049  -16.5403   20.3980 H   0  0  0  0  0  0  0  0  0  0  0  0
   -7.9602  -13.7317   20.0495 H   0  0  0  0  0  0  0  0  0  0  0  0
   -9.7282  -13.9838   19.6004 H   0  0  0  0  0  0  0  0  0  0  0  0
   -9.2909  -13.6002   21.0248 H   0  0  0  0  0  0  0  0  0  0  0  0
   -8.4758  -16.0580   18.1047 H   0  0  0  0  0  0  0  0  0  0  0  0
   -9.0474  -12.8767   18.6579 H   0  0  0  0  0  0  0  0  0  0  0  0
   -7.3731  -13.0219   18.8315 H   0  0  0  0  0  0  0  0  0  0  0  0
   -5.1522  -12.4510   16.4153 H   0  0  0  0  0  0  0  0  0  0  0  0
   -6.0371  -13.7061   15.5058 H   0  0  0  0  0  0  0  0  0  0  0  0
   -5.8957  -12.4419   13.4282 H   0  0  0  0  0  0  0  0  0  0  0  0
   -4.2865  -12.3772   14.1384 H   0  0  0  0  0  0  0  0  0  0  0  0
   -4.9754  -10.2385   13.3433 H   0  0  0  0  0  0  0  0  0  0  0  0
   -6.7401   -9.0250   14.5220 H   0  0  0  0  0  0  0  0  0  0  0  0
   -7.2720  -10.2817   13.3996 H   0  0  0  0  0  0  0  0  0  0  0  0
  1  2  1  0
  2  3  1  0
  3  4  1  0
  4  5  2  0
  5  6  1  0
  6  7  2  0
  7  8  1  0
  8  9  1  0
  8 10  1  0
 10 11  1  0
 11 12  1  0
 12 13  2  0
 13 14  1  0
 14 15  2  0
 15 16  1  0
 16 17  1  0
 17 18  1  0
 18 19  1  0
 19 20  1  0
  7  3  1  0
 16 12  1  0
 20 15  1  0
  1 21  1  0
  1 22  1  0
  1 23  1  0
  2 24  1  0
  2 25  1  0
  4 26  1  0
  5 27  1  0
  8 28  1  0
  9 29  1  0
  9 30  1  0
  9 31  1  0
 10 32  1  0
 11 33  1  0
 11 34  1  0
 17 35  1  0
 17 36  1  0
 18 37  1  0
 18 38  1  0
 19 39  1  0
 20 40  1  0
 20 41  1  0
M  END
>  <Energy>  (802) 
1065.5690851026643

>  <compound_id>  (802) 
5754

>  <target_id>  (802) 
1

>  <reference_id>  (802) 
65

>  <inspiration_ids>  (802) 
[115, 65]

>  <energy_score>  (802) 
999.3363423548186

>  <distance_score>  (802) 
12.742732215843747

>  <path>  (802) 
/opt/xchem-fragalysis-2/maxwin/BulkDock/SCRATCH/511018/C5754-P65/C5754-P65.minimised.mol

>  <scratch_subdir>  (802) 
/opt/xchem-fragalysis-2/maxwin/BulkDock/SCRATCH/511018/C5754-P65

>  <fragmenstein_runtime>  (802) 
26.441689014434814

>  <fragmenstein_outcome>  (802) 
too moved

>  <fragmenstein_mode>  (802) 
expansion

>  <fragmenstein_error>  (802) 


$$$$
C5764-P115
     RDKit          3D

 37 40  0  0  0  0  0  0  0  0999 V2000
   -6.7606  -14.4852   16.0447 O   0  0  0  0  0  0  0  0  0  0  0  0
   -7.5677  -14.0419   16.7571 C   0  0  0  0  0  0  0  0  0  0  0  0
   -8.3938  -12.4950   16.4756 N   0  0  0  0  0  0  0  0  0  0  0  0
   -8.3720  -11.2805   14.9246 C   0  0  0  0  0  0  0  0  0  0  0  0
   -7.6302   -9.7521   14.5728 C   0  0  0  0  0  0  0  0  0  0  0  0
   -7.4841   -8.6952   15.3608 N   0  0  0  0  0  0  0  0  0  0  0  0
   -6.6775   -7.7562   14.7580 N   0  0  0  0  0  0  0  0  0  0  0  0
   -6.2906   -8.2462   13.6058 C   0  0  0  0  0  0  0  0  0  0  0  0
   -6.9396   -9.4452   13.3997 N   0  0  0  0  0  0  0  0  0  0  0  0
   -6.7741  -10.1757   12.1625 C   0  0  0  0  0  0  0  0  0  0  0  0
   -5.4694   -9.7689   11.4468 C   0  0  0  0  0  0  0  0  0  0  0  0
   -5.3030   -8.3146   11.3291 N   0  0  0  0  0  0  0  0  0  0  0  0
   -5.2891   -7.6770   12.6556 C   0  0  0  0  0  0  0  0  0  0  0  0
   -8.0215  -15.3438   18.0511 C   0  0  0  0  0  0  0  0  0  0  0  0
   -7.9462  -16.6363   17.4294 C   0  0  0  0  0  0  0  0  0  0  0  0
   -6.8603  -17.9151   18.4491 S   0  0  0  0  0  0  0  0  0  0  0  0
   -7.0739  -16.8122   19.8194 C   0  0  0  0  0  0  0  0  0  0  0  0
   -6.6024  -17.5486   20.9017 C   0  0  0  0  0  0  0  0  0  0  0  0
   -5.6493  -18.3453   20.5671 N   0  0  0  0  0  0  0  0  0  0  0  0
   -6.1802  -19.4961   20.9068 C   0  0  0  0  0  0  0  0  0  0  0  0
   -7.0043  -19.3049   21.9954 C   0  0  0  0  0  0  0  0  0  0  0  0
   -7.2115  -17.9875   22.0053 N   0  0  0  0  0  0  0  0  0  0  0  0
   -8.4022  -15.9019   19.3677 N   0  0  0  0  0  0  0  0  0  0  0  0
   -8.9959  -12.2803   17.2848 H   0  0  0  0  0  0  0  0  0  0  0  0
   -9.4495  -11.0614   14.7873 H   0  0  0  0  0  0  0  0  0  0  0  0
   -8.3539  -11.9019   13.9988 H   0  0  0  0  0  0  0  0  0  0  0  0
   -7.6474   -9.9471   11.5422 H   0  0  0  0  0  0  0  0  0  0  0  0
   -6.7664  -11.2460   12.3824 H   0  0  0  0  0  0  0  0  0  0  0  0
   -5.4596  -10.2123   10.4452 H   0  0  0  0  0  0  0  0  0  0  0  0
   -4.6060  -10.1870   11.9803 H   0  0  0  0  0  0  0  0  0  0  0  0
   -6.0803   -7.9524   10.7843 H   0  0  0  0  0  0  0  0  0  0  0  0
   -5.4510   -6.6000   12.5403 H   0  0  0  0  0  0  0  0  0  0  0  0
   -4.2901   -7.7988   13.0907 H   0  0  0  0  0  0  0  0  0  0  0  0
   -8.0448  -16.8660   16.4059 H   0  0  0  0  0  0  0  0  0  0  0  0
   -5.6939  -20.3490   20.4570 H   0  0  0  0  0  0  0  0  0  0  0  0
   -7.4644  -19.9629   22.6899 H   0  0  0  0  0  0  0  0  0  0  0  0
   -7.6958  -17.4303   22.6837 H   0  0  0  0  0  0  0  0  0  0  0  0
  1  2  2  0
  2  3  1  0
  3  4  1  0
  4  5  1  0
  5  6  2  0
  6  7  1  0
  7  8  2  0
  8  9  1  0
  9 10  1  0
 10 11  1  0
 11 12  1  0
 12 13  1  0
  2 14  1  0
 14 15  2  0
 15 16  1  0
 16 17  1  0
 17 18  1  0
 18 19  2  0
 19 20  1  0
 20 21  2  0
 21 22  1  0
 17 23  2  0
  9  5  1  0
 23 14  1  0
 13  8  1  0
 22 18  1  0
  3 24  1  0
  4 25  1  0
  4 26  1  0
 10 27  1  0
 10 28  1  0
 11 29  1  0
 11 30  1  0
 12 31  1  0
 13 32  1  0
 13 33  1  0
 15 34  1  0
 20 35  1  0
 21 36  1  0
 22 37  1  0
M  END
>  <Energy>  (803) 
450.54546876986279

>  <compound_id>  (803) 
5764

>  <target_id>  (803) 
1

>  <reference_id>  (803) 
115

>  <inspiration_ids>  (803) 
[115, 65]

>  <energy_score>  (803) 
361.8318110001255

>  <distance_score>  (803) 
11.337891703297753

>  <path>  (803) 
/opt/xchem-fragalysis-2/maxwin/BulkDock/SCRATCH/511018/C5764-P115/C5764-P115.minimised.mol

>  <scratch_subdir>  (803) 
/opt/xchem-fragalysis-2/maxwin/BulkDock/SCRATCH/511018/C5764-P115

>  <fragmenstein_runtime>  (803) 
20.606854915618896

>  <fragmenstein_outcome>  (803) 
too moved

>  <fragmenstein_mode>  (803) 
expansion

>  <fragmenstein_error>  (803) 


$$$$
C5764-P65
     RDKit          3D

 37 40  0  0  0  0  0  0  0  0999 V2000
  -10.8771  -14.8129   18.9483 O   0  0  0  0  0  0  0  0  0  0  0  0
   -9.9159  -15.0663   19.3225 C   0  0  0  0  0  0  0  0  0  0  0  0
   -8.8670  -13.7059   19.1349 N   0  0  0  0  0  0  0  0  0  0  0  0
   -9.0608  -12.3688   18.4719 C   0  0  0  0  0  0  0  0  0  0  0  0
  -10.7985  -11.8959   17.7635 C   0  0  0  0  0  0  0  0  0  0  0  0
  -11.3344  -10.7152   18.1931 N   0  0  0  0  0  0  0  0  0  0  0  0
  -12.2597  -10.0829   17.4035 N   0  0  0  0  0  0  0  0  0  0  0  0
  -12.3075  -10.6421   16.2296 C   0  0  0  0  0  0  0  0  0  0  0  0
  -11.4663  -11.7814   16.1960 N   0  0  0  0  0  0  0  0  0  0  0  0
  -10.8524  -12.0006   14.8416 C   0  0  0  0  0  0  0  0  0  0  0  0
  -10.8634  -10.7379   13.9378 C   0  0  0  0  0  0  0  0  0  0  0  0
  -12.2208  -10.2536   13.7360 N   0  0  0  0  0  0  0  0  0  0  0  0
  -12.8978   -9.9824   15.0130 C   0  0  0  0  0  0  0  0  0  0  0  0
  -10.0419  -16.7676   20.0952 C   0  0  0  0  0  0  0  0  0  0  0  0
   -8.7734  -17.7186   21.3062 C   0  0  0  0  0  0  0  0  0  0  0  0
   -9.9963  -18.8848   22.9178 S   0  0  0  0  0  0  0  0  0  0  0  0
  -11.4662  -19.6990   21.0441 C   0  0  0  0  0  0  0  0  0  0  0  0
  -11.9241  -21.0854   21.5795 C   0  0  0  0  0  0  0  0  0  0  0  0
  -12.0380  -22.2242   20.9346 N   0  0  0  0  0  0  0  0  0  0  0  0
  -12.5939  -23.1241   21.8245 C   0  0  0  0  0  0  0  0  0  0  0  0
  -12.7027  -22.5710   23.0739 C   0  0  0  0  0  0  0  0  0  0  0  0
  -12.2390  -21.2989   22.9175 N   0  0  0  0  0  0  0  0  0  0  0  0
  -11.7698  -18.1314   19.8616 N   0  0  0  0  0  0  0  0  0  0  0  0
   -8.0394  -13.9229   19.5547 H   0  0  0  0  0  0  0  0  0  0  0  0
   -8.5202  -11.5716   18.9315 H   0  0  0  0  0  0  0  0  0  0  0  0
   -8.4571  -12.5152   17.5733 H   0  0  0  0  0  0  0  0  0  0  0  0
   -9.8061  -12.2922   14.9058 H   0  0  0  0  0  0  0  0  0  0  0  0
  -11.4435  -12.7956   14.3789 H   0  0  0  0  0  0  0  0  0  0  0  0
  -10.4346  -11.0010   12.9646 H   0  0  0  0  0  0  0  0  0  0  0  0
  -10.2353   -9.9456   14.3595 H   0  0  0  0  0  0  0  0  0  0  0  0
  -12.2258   -9.4169   13.1599 H   0  0  0  0  0  0  0  0  0  0  0  0
  -13.9482  -10.2786   14.9222 H   0  0  0  0  0  0  0  0  0  0  0  0
  -12.8860   -8.8981   15.1810 H   0  0  0  0  0  0  0  0  0  0  0  0
   -7.8453  -17.3613   21.7302 H   0  0  0  0  0  0  0  0  0  0  0  0
  -12.8450  -24.1313   21.5125 H   0  0  0  0  0  0  0  0  0  0  0  0
  -13.0496  -22.9598   24.0226 H   0  0  0  0  0  0  0  0  0  0  0  0
  -12.2006  -20.5806   23.6294 H   0  0  0  0  0  0  0  0  0  0  0  0
  1  2  2  0
  2  3  1  0
  3  4  1  0
  4  5  1  0
  5  6  2  0
  6  7  1  0
  7  8  2  0
  8  9  1  0
  9 10  1  0
 10 11  1  0
 11 12  1  0
 12 13  1  0
  2 14  1  0
 14 15  2  0
 15 16  1  0
 16 17  1  0
 17 18  1  0
 18 19  2  0
 19 20  1  0
 20 21  2  0
 21 22  1  0
 17 23  2  0
  9  5  1  0
 23 14  1  0
 13  8  1  0
 22 18  1  0
  3 24  1  0
  4 25  1  0
  4 26  1  0
 10 27  1  0
 10 28  1  0
 11 29  1  0
 11 30  1  0
 12 31  1  0
 13 32  1  0
 13 33  1  0
 15 34  1  0
 20 35  1  0
 21 36  1  0
 22 37  1  0
M  END
>  <Energy>  (804) 
1082.4265530072744

>  <compound_id>  (804) 
5764

>  <target_id>  (804) 
1

>  <reference_id>  (804) 
65

>  <inspiration_ids>  (804) 
[115, 65]

>  <energy_score>  (804) 
993.7128952375645

>  <distance_score>  (804) 
13.184011151786695

>  <path>  (804) 
/opt/xchem-fragalysis-2/maxwin/BulkDock/SCRATCH/511018/C5764-P65/C5764-P65.minimised.mol

>  <scratch_subdir>  (804) 
/opt/xchem-fragalysis-2/maxwin/BulkDock/SCRATCH/511018/C5764-P65

>  <fragmenstein_runtime>  (804) 
23.46210289001465

>  <fragmenstein_outcome>  (804) 
too moved

>  <fragmenstein_mode>  (804) 
expansion

>  <fragmenstein_error>  (804) 


$$$$
C5757-P115
     RDKit          3D

 34 36  0  0  0  0  0  0  0  0999 V2000
   -9.4575  -13.3291   20.0081 O   0  0  0  0  0  0  0  0  0  0  0  0
   -8.9732  -13.8010   19.0490 C   0  0  0  0  0  0  0  0  0  0  0  0
   -9.4327  -15.7577   18.5774 C   0  0  0  0  0  0  0  0  0  0  0  0
  -10.8896  -17.0706   17.9797 N   0  0  0  0  0  0  0  0  0  0  0  0
  -11.4745  -16.9493   19.1478 C   0  0  0  0  0  0  0  0  0  0  0  0
  -12.0796  -18.2108   19.8103 N   0  0  0  0  0  0  0  0  0  0  0  0
  -12.2028  -19.2839   18.9736 C   0  0  0  0  0  0  0  0  0  0  0  0
  -11.4016  -21.0397   20.5518 Br  0  0  0  0  0  0  0  0  0  0  0  0
  -11.4328  -18.2345   18.2371 C   0  0  0  0  0  0  0  0  0  0  0  0
   -8.0407  -13.0223   17.9480 N   0  0  0  0  0  0  0  0  0  0  0  0
   -7.6712  -11.5773   17.8219 C   0  0  0  0  0  0  0  0  0  0  0  0
   -7.4125  -11.0894   16.3605 C   0  0  0  0  0  0  0  0  0  0  0  0
   -7.5868  -11.7957   15.2510 N   0  0  0  0  0  0  0  0  0  0  0  0
   -7.2364  -11.0335   14.1495 N   0  0  0  0  0  0  0  0  0  0  0  0
   -6.8373   -9.8601   14.5778 C   0  0  0  0  0  0  0  0  0  0  0  0
   -6.9692   -9.8316   15.9487 N   0  0  0  0  0  0  0  0  0  0  0  0
   -6.6832   -8.6216   16.6918 C   0  0  0  0  0  0  0  0  0  0  0  0
   -5.8164   -7.6204   15.8851 C   0  0  0  0  0  0  0  0  0  0  0  0
   -6.2841   -7.4488   14.5055 N   0  0  0  0  0  0  0  0  0  0  0  0
   -6.2351   -8.7385   13.7910 C   0  0  0  0  0  0  0  0  0  0  0  0
   -9.3444  -16.0663   19.5949 H   0  0  0  0  0  0  0  0  0  0  0  0
   -8.6437  -16.1779   17.9131 H   0  0  0  0  0  0  0  0  0  0  0  0
  -11.9411  -15.9895   19.5612 H   0  0  0  0  0  0  0  0  0  0  0  0
  -11.9850  -18.0119   17.2434 H   0  0  0  0  0  0  0  0  0  0  0  0
   -7.6949  -13.6888   17.2761 H   0  0  0  0  0  0  0  0  0  0  0  0
   -6.7631  -11.4262   18.4126 H   0  0  0  0  0  0  0  0  0  0  0  0
   -8.4931  -10.9888   18.2370 H   0  0  0  0  0  0  0  0  0  0  0  0
   -7.6527   -8.1750   16.9396 H   0  0  0  0  0  0  0  0  0  0  0  0
   -6.1738   -8.9063   17.6178 H   0  0  0  0  0  0  0  0  0  0  0  0
   -5.8314   -6.6509   16.3950 H   0  0  0  0  0  0  0  0  0  0  0  0
   -4.7726   -7.9598   15.8786 H   0  0  0  0  0  0  0  0  0  0  0  0
   -5.6931   -6.7816   14.0118 H   0  0  0  0  0  0  0  0  0  0  0  0
   -5.1904   -8.9906   13.5708 H   0  0  0  0  0  0  0  0  0  0  0  0
   -6.7484   -8.6478   12.8305 H   0  0  0  0  0  0  0  0  0  0  0  0
  1  2  2  0
  2  3  1  0
  3  4  1  0
  4  5  1  0
  5  6  2  0
  6  7  1  0
  7  8  1  0
  7  9  2  0
  2 10  1  0
 10 11  1  0
 11 12  1  0
 12 13  2  0
 13 14  1  0
 14 15  2  0
 15 16  1  0
 16 17  1  0
 17 18  1  0
 18 19  1  0
 19 20  1  0
  9  4  1  0
 16 12  1  0
 20 15  1  0
  3 21  1  0
  3 22  1  0
  5 23  1  0
  9 24  1  0
 10 25  1  0
 11 26  1  0
 11 27  1  0
 17 28  1  0
 17 29  1  0
 18 30  1  0
 18 31  1  0
 19 32  1  0
 20 33  1  0
 20 34  1  0
M  END
>  <Energy>  (805) 
566.27287600033173

>  <compound_id>  (805) 
5757

>  <target_id>  (805) 
1

>  <reference_id>  (805) 
115

>  <inspiration_ids>  (805) 
[115, 65]

>  <energy_score>  (805) 
526.5746477043667

>  <distance_score>  (805) 
13.030069348789793

>  <path>  (805) 
/opt/xchem-fragalysis-2/maxwin/BulkDock/SCRATCH/511018/C5757-P115/C5757-P115.minimised.mol

>  <scratch_subdir>  (805) 
/opt/xchem-fragalysis-2/maxwin/BulkDock/SCRATCH/511018/C5757-P115

>  <fragmenstein_runtime>  (805) 
22.017706155776978

>  <fragmenstein_outcome>  (805) 
too moved

>  <fragmenstein_mode>  (805) 
expansion

>  <fragmenstein_error>  (805) 


$$$$
C5757-P65
     RDKit          3D

 34 36  0  0  0  0  0  0  0  0999 V2000
   -9.9440  -15.7552   19.0204 O   0  0  0  0  0  0  0  0  0  0  0  0
   -8.9691  -15.3138   19.4814 C   0  0  0  0  0  0  0  0  0  0  0  0
   -7.5992  -16.4790   20.5029 C   0  0  0  0  0  0  0  0  0  0  0  0
   -7.3218  -18.1491   21.1985 N   0  0  0  0  0  0  0  0  0  0  0  0
   -7.3211  -18.1668   22.5267 C   0  0  0  0  0  0  0  0  0  0  0  0
   -6.9226  -19.1601   23.2303 N   0  0  0  0  0  0  0  0  0  0  0  0
   -6.6685  -20.0452   22.3211 C   0  0  0  0  0  0  0  0  0  0  0  0
   -5.4107  -22.0877   23.0292 Br  0  0  0  0  0  0  0  0  0  0  0  0
   -6.5976  -19.3023   20.9877 C   0  0  0  0  0  0  0  0  0  0  0  0
   -8.4327  -13.6225   19.2785 N   0  0  0  0  0  0  0  0  0  0  0  0
   -9.0496  -12.3979   18.3774 C   0  0  0  0  0  0  0  0  0  0  0  0
   -8.0964  -11.7388   17.2815 C   0  0  0  0  0  0  0  0  0  0  0  0
   -7.0662  -12.2977   16.6660 N   0  0  0  0  0  0  0  0  0  0  0  0
   -6.4772  -11.3842   15.8059 N   0  0  0  0  0  0  0  0  0  0  0  0
   -7.1389  -10.2578   15.8911 C   0  0  0  0  0  0  0  0  0  0  0  0
   -8.1947  -10.4445   16.7564 N   0  0  0  0  0  0  0  0  0  0  0  0
   -9.1091   -9.3610   17.0542 C   0  0  0  0  0  0  0  0  0  0  0  0
   -8.9379   -8.1586   16.0937 C   0  0  0  0  0  0  0  0  0  0  0  0
   -7.5247   -7.8300   15.8739 N   0  0  0  0  0  0  0  0  0  0  0  0
   -6.8624   -8.9607   15.1970 C   0  0  0  0  0  0  0  0  0  0  0  0
   -7.0372  -17.0316   19.7243 H   0  0  0  0  0  0  0  0  0  0  0  0
   -8.2567  -16.6069   21.2965 H   0  0  0  0  0  0  0  0  0  0  0  0
   -7.5865  -17.2602   22.9818 H   0  0  0  0  0  0  0  0  0  0  0  0
   -6.1237  -19.5595   20.0512 H   0  0  0  0  0  0  0  0  0  0  0  0
   -7.6173  -13.4627   19.8307 H   0  0  0  0  0  0  0  0  0  0  0  0
   -9.1322  -11.5269   18.9875 H   0  0  0  0  0  0  0  0  0  0  0  0
  -10.0989  -12.4949   18.1021 H   0  0  0  0  0  0  0  0  0  0  0  0
   -8.8980   -9.0511   18.0830 H   0  0  0  0  0  0  0  0  0  0  0  0
  -10.1280   -9.7573   16.9999 H   0  0  0  0  0  0  0  0  0  0  0  0
   -9.4544   -7.2898   16.5158 H   0  0  0  0  0  0  0  0  0  0  0  0
   -9.4238   -8.3897   15.1406 H   0  0  0  0  0  0  0  0  0  0  0  0
   -7.4239   -6.9929   15.3047 H   0  0  0  0  0  0  0  0  0  0  0  0
   -7.1979   -9.0310   14.1562 H   0  0  0  0  0  0  0  0  0  0  0  0
   -5.7827   -8.7784   15.1853 H   0  0  0  0  0  0  0  0  0  0  0  0
  1  2  2  0
  2  3  1  0
  3  4  1  0
  4  5  1  0
  5  6  2  0
  6  7  1  0
  7  8  1  0
  7  9  2  0
  2 10  1  0
 10 11  1  0
 11 12  1  0
 12 13  2  0
 13 14  1  0
 14 15  2  0
 15 16  1  0
 16 17  1  0
 17 18  1  0
 18 19  1  0
 19 20  1  0
  9  4  1  0
 16 12  1  0
 20 15  1  0
  3 21  1  0
  3 22  1  0
  5 23  1  0
  9 24  1  0
 10 25  1  0
 11 26  1  0
 11 27  1  0
 17 28  1  0
 17 29  1  0
 18 30  1  0
 18 31  1  0
 19 32  1  0
 20 33  1  0
 20 34  1  0
M  END
>  <Energy>  (806) 
342.40206541629954

>  <compound_id>  (806) 
5757

>  <target_id>  (806) 
1

>  <reference_id>  (806) 
65

>  <inspiration_ids>  (806) 
[115, 65]

>  <energy_score>  (806) 
302.70383712032606

>  <distance_score>  (806) 
12.830616062358303

>  <path>  (806) 
/opt/xchem-fragalysis-2/maxwin/BulkDock/SCRATCH/511018/C5757-P65/C5757-P65.minimised.mol

>  <scratch_subdir>  (806) 
/opt/xchem-fragalysis-2/maxwin/BulkDock/SCRATCH/511018/C5757-P65

>  <fragmenstein_runtime>  (806) 
27.518516302108765

>  <fragmenstein_outcome>  (806) 
too moved

>  <fragmenstein_mode>  (806) 
expansion

>  <fragmenstein_error>  (806) 


$$$$
C5752-P115
     RDKit          3D

 34 36  0  0  0  0  0  0  0  0999 V2000
   -6.3638  -18.6252   22.2370 C   0  0  0  0  0  0  0  0  0  0  0  0
   -6.4882  -18.2613   20.8125 C   0  0  0  0  0  0  0  0  0  0  0  0
   -6.8105  -17.1125   20.2310 N   0  0  0  0  0  0  0  0  0  0  0  0
   -7.1300  -17.3172   18.7167 C   0  0  0  0  0  0  0  0  0  0  0  0
   -7.6995  -15.9221   17.5274 C   0  0  0  0  0  0  0  0  0  0  0  0
   -7.7114  -16.3321   16.4015 O   0  0  0  0  0  0  0  0  0  0  0  0
   -8.0070  -14.1477   17.9954 N   0  0  0  0  0  0  0  0  0  0  0  0
   -8.2423  -12.6506   16.9510 C   0  0  0  0  0  0  0  0  0  0  0  0
   -8.8475  -12.1126   15.1299 C   0  0  0  0  0  0  0  0  0  0  0  0
   -9.2475  -13.0566   14.2504 N   0  0  0  0  0  0  0  0  0  0  0  0
   -9.1322  -12.6462   12.9364 N   0  0  0  0  0  0  0  0  0  0  0  0
   -8.8027  -11.3924   12.8911 C   0  0  0  0  0  0  0  0  0  0  0  0
   -8.5894  -10.9283   14.1784 N   0  0  0  0  0  0  0  0  0  0  0  0
   -7.9012   -9.6166   14.1947 C   0  0  0  0  0  0  0  0  0  0  0  0
   -6.9123   -9.4010   13.0075 C   0  0  0  0  0  0  0  0  0  0  0  0
   -7.3261   -9.8326   11.6795 N   0  0  0  0  0  0  0  0  0  0  0  0
   -8.5980  -10.5556   11.6728 C   0  0  0  0  0  0  0  0  0  0  0  0
   -6.3031  -18.4733   18.6454 C   0  0  0  0  0  0  0  0  0  0  0  0
   -6.2560  -19.1676   19.8397 N   0  0  0  0  0  0  0  0  0  0  0  0
   -7.1475  -18.1527   22.8354 H   0  0  0  0  0  0  0  0  0  0  0  0
   -5.3827  -18.3450   22.6306 H   0  0  0  0  0  0  0  0  0  0  0  0
   -6.4739  -19.7075   22.3569 H   0  0  0  0  0  0  0  0  0  0  0  0
   -8.0329  -14.0616   19.0077 H   0  0  0  0  0  0  0  0  0  0  0  0
   -7.6148  -11.9156   17.4658 H   0  0  0  0  0  0  0  0  0  0  0  0
   -7.6760  -13.4194   16.4380 H   0  0  0  0  0  0  0  0  0  0  0  0
   -7.2733   -9.4685   15.0728 H   0  0  0  0  0  0  0  0  0  0  0  0
   -8.7054   -8.8788   14.2028 H   0  0  0  0  0  0  0  0  0  0  0  0
   -5.9953   -9.9605   13.2327 H   0  0  0  0  0  0  0  0  0  0  0  0
   -6.5959   -8.3527   12.9836 H   0  0  0  0  0  0  0  0  0  0  0  0
   -7.3897   -9.0539   11.0270 H   0  0  0  0  0  0  0  0  0  0  0  0
   -8.6259  -11.1940   10.7829 H   0  0  0  0  0  0  0  0  0  0  0  0
   -9.4383   -9.8654   11.5833 H   0  0  0  0  0  0  0  0  0  0  0  0
   -5.5840  -18.8572   17.9508 H   0  0  0  0  0  0  0  0  0  0  0  0
   -5.8142  -20.0650   19.9767 H   0  0  0  0  0  0  0  0  0  0  0  0
  1  2  1  0
  2  3  2  0
  3  4  1  0
  4  5  1  0
  5  6  2  0
  5  7  1  0
  7  8  1  0
  8  9  1  0
  9 10  2  0
 10 11  1  0
 11 12  2  0
 12 13  1  0
 13 14  1  0
 14 15  1  0
 15 16  1  0
 16 17  1  0
  4 18  2  0
 18 19  1  0
 19  2  1  0
 13  9  1  0
 17 12  1  0
  1 20  1  0
  1 21  1  0
  1 22  1  0
  7 23  1  0
  8 24  1  0
  8 25  1  0
 14 26  1  0
 14 27  1  0
 15 28  1  0
 15 29  1  0
 16 30  1  0
 17 31  1  0
 17 32  1  0
 18 33  1  0
 19 34  1  0
M  END
>  <Energy>  (807) 
382.47259996990738

>  <compound_id>  (807) 
5752

>  <target_id>  (807) 
1

>  <reference_id>  (807) 
115

>  <inspiration_ids>  (807) 
[115, 65]

>  <energy_score>  (807) 
327.6214368700633

>  <distance_score>  (807) 
13.369447668693809

>  <path>  (807) 
/opt/xchem-fragalysis-2/maxwin/BulkDock/SCRATCH/511018/C5752-P115/C5752-P115.minimised.mol

>  <scratch_subdir>  (807) 
/opt/xchem-fragalysis-2/maxwin/BulkDock/SCRATCH/511018/C5752-P115

>  <fragmenstein_runtime>  (807) 
16.289457321166992

>  <fragmenstein_outcome>  (807) 
too moved

>  <fragmenstein_mode>  (807) 
expansion

>  <fragmenstein_error>  (807) 


$$$$
C5752-P65
     RDKit          3D

 34 36  0  0  0  0  0  0  0  0999 V2000
   -6.9071  -18.5797   23.4006 C   0  0  0  0  0  0  0  0  0  0  0  0
   -7.3042  -18.1356   22.0903 C   0  0  0  0  0  0  0  0  0  0  0  0
   -8.1713  -17.1829   21.8735 N   0  0  0  0  0  0  0  0  0  0  0  0
   -8.0012  -16.3132   20.6662 C   0  0  0  0  0  0  0  0  0  0  0  0
   -8.8945  -15.0430   19.4264 C   0  0  0  0  0  0  0  0  0  0  0  0
   -9.8966  -15.3951   18.9051 O   0  0  0  0  0  0  0  0  0  0  0  0
   -7.8457  -13.4982   19.1627 N   0  0  0  0  0  0  0  0  0  0  0  0
   -7.9346  -12.1618   17.9414 C   0  0  0  0  0  0  0  0  0  0  0  0
   -6.8517  -10.6036   17.1383 C   0  0  0  0  0  0  0  0  0  0  0  0
   -7.2416   -9.2385   17.5328 N   0  0  0  0  0  0  0  0  0  0  0  0
   -6.4399   -8.1970   17.0563 N   0  0  0  0  0  0  0  0  0  0  0  0
   -5.5665   -8.7305   16.2401 C   0  0  0  0  0  0  0  0  0  0  0  0
   -6.2527   -9.8829   15.8137 N   0  0  0  0  0  0  0  0  0  0  0  0
   -7.0060   -9.3679   14.5723 C   0  0  0  0  0  0  0  0  0  0  0  0
   -5.9886   -8.9451   13.4779 C   0  0  0  0  0  0  0  0  0  0  0  0
   -4.6705   -8.4953   13.9482 N   0  0  0  0  0  0  0  0  0  0  0  0
   -4.6942   -7.9350   15.3040 C   0  0  0  0  0  0  0  0  0  0  0  0
   -6.8615  -17.3438   20.1433 C   0  0  0  0  0  0  0  0  0  0  0  0
   -6.5694  -18.3695   21.0089 N   0  0  0  0  0  0  0  0  0  0  0  0
   -5.9066  -19.0180   23.4049 H   0  0  0  0  0  0  0  0  0  0  0  0
   -7.6927  -19.2724   23.6039 H   0  0  0  0  0  0  0  0  0  0  0  0
   -6.9386  -17.7877   24.1536 H   0  0  0  0  0  0  0  0  0  0  0  0
   -7.1040  -13.4449   19.8112 H   0  0  0  0  0  0  0  0  0  0  0  0
   -6.8494  -12.3657   18.0725 H   0  0  0  0  0  0  0  0  0  0  0  0
   -8.2126  -12.6806   17.0441 H   0  0  0  0  0  0  0  0  0  0  0  0
   -7.5725   -8.4881   14.9076 H   0  0  0  0  0  0  0  0  0  0  0  0
   -7.7587  -10.0708   14.2038 H   0  0  0  0  0  0  0  0  0  0  0  0
   -5.8173   -9.8027   12.8171 H   0  0  0  0  0  0  0  0  0  0  0  0
   -6.4316   -8.1644   12.8581 H   0  0  0  0  0  0  0  0  0  0  0  0
   -4.2641   -7.8253   13.2980 H   0  0  0  0  0  0  0  0  0  0  0  0
   -3.6744   -7.9104   15.7009 H   0  0  0  0  0  0  0  0  0  0  0  0
   -5.0600   -6.9021   15.2626 H   0  0  0  0  0  0  0  0  0  0  0  0
   -6.5056  -17.5436   19.1439 H   0  0  0  0  0  0  0  0  0  0  0  0
   -5.8369  -19.0556   20.8964 H   0  0  0  0  0  0  0  0  0  0  0  0
  1  2  1  0
  2  3  2  0
  3  4  1  0
  4  5  1  0
  5  6  2  0
  5  7  1  0
  7  8  1  0
  8  9  1  0
  9 10  2  0
 10 11  1  0
 11 12  2  0
 12 13  1  0
 13 14  1  0
 14 15  1  0
 15 16  1  0
 16 17  1  0
  4 18  2  0
 18 19  1  0
 19  2  1  0
 13  9  1  0
 17 12  1  0
  1 20  1  0
  1 21  1  0
  1 22  1  0
  7 23  1  0
  8 24  1  0
  8 25  1  0
 14 26  1  0
 14 27  1  0
 15 28  1  0
 15 29  1  0
 16 30  1  0
 17 31  1  0
 17 32  1  0
 18 33  1  0
 19 34  1  0
M  END
>  <Energy>  (808) 
522.41453381041993

>  <compound_id>  (808) 
5752

>  <target_id>  (808) 
1

>  <reference_id>  (808) 
65

>  <inspiration_ids>  (808) 
[115, 65]

>  <energy_score>  (808) 
467.56337071058056

>  <distance_score>  (808) 
12.799948282873068

>  <path>  (808) 
/opt/xchem-fragalysis-2/maxwin/BulkDock/SCRATCH/511018/C5752-P65/C5752-P65.minimised.mol

>  <scratch_subdir>  (808) 
/opt/xchem-fragalysis-2/maxwin/BulkDock/SCRATCH/511018/C5752-P65

>  <fragmenstein_runtime>  (808) 
21.466029405593872

>  <fragmenstein_outcome>  (808) 
too moved

>  <fragmenstein_mode>  (808) 
expansion

>  <fragmenstein_error>  (808) 


$$$$
C5758-P115
     RDKit          3D

 40 42  0  0  0  0  0  0  0  0999 V2000
   -6.7752  -18.4724   22.6243 C   0  0  0  0  0  0  0  0  0  0  0  0
   -6.9209  -18.2012   21.2040 C   0  0  0  0  0  0  0  0  0  0  0  0
   -7.0430  -19.5482   20.6562 C   0  0  0  0  0  0  0  0  0  0  0  0
   -6.1983  -17.4234   20.2484 N   0  0  0  0  0  0  0  0  0  0  0  0
   -5.0299  -17.9032   19.6273 C   0  0  0  0  0  0  0  0  0  0  0  0
   -5.4369  -18.6075   18.5686 C   0  0  0  0  0  0  0  0  0  0  0  0
   -6.7565  -18.3170   18.3795 N   0  0  0  0  0  0  0  0  0  0  0  0
   -7.0240  -17.2170   19.0996 C   0  0  0  0  0  0  0  0  0  0  0  0
   -8.1243  -15.8818   18.3419 C   0  0  0  0  0  0  0  0  0  0  0  0
   -8.5186  -16.2561   17.2723 O   0  0  0  0  0  0  0  0  0  0  0  0
   -8.3973  -14.1658   19.0613 N   0  0  0  0  0  0  0  0  0  0  0  0
   -9.0908  -12.7689   18.3835 C   0  0  0  0  0  0  0  0  0  0  0  0
   -8.1378  -11.9074   17.3762 C   0  0  0  0  0  0  0  0  0  0  0  0
   -6.9583  -12.2657   16.8825 N   0  0  0  0  0  0  0  0  0  0  0  0
   -6.4547  -11.2658   16.0656 N   0  0  0  0  0  0  0  0  0  0  0  0
   -7.3225  -10.2851   16.0494 C   0  0  0  0  0  0  0  0  0  0  0  0
   -8.4141  -10.6605   16.8064 N   0  0  0  0  0  0  0  0  0  0  0  0
   -9.5584   -9.7845   16.9312 C   0  0  0  0  0  0  0  0  0  0  0  0
   -9.5312   -8.6289   15.8974 C   0  0  0  0  0  0  0  0  0  0  0  0
   -8.2089   -7.9967   15.8227 N   0  0  0  0  0  0  0  0  0  0  0  0
   -7.2285   -8.9779   15.3238 C   0  0  0  0  0  0  0  0  0  0  0  0
   -6.0401  -19.0790   23.0390 H   0  0  0  0  0  0  0  0  0  0  0  0
   -7.6314  -19.0833   22.9053 H   0  0  0  0  0  0  0  0  0  0  0  0
   -6.7532  -17.5578   23.1582 H   0  0  0  0  0  0  0  0  0  0  0  0
   -7.8423  -17.6550   21.3274 H   0  0  0  0  0  0  0  0  0  0  0  0
   -6.0436  -19.9786   20.5532 H   0  0  0  0  0  0  0  0  0  0  0  0
   -7.6629  -20.0772   21.3458 H   0  0  0  0  0  0  0  0  0  0  0  0
   -7.5777  -19.6916   19.7346 H   0  0  0  0  0  0  0  0  0  0  0  0
   -4.0128  -17.5763   19.7848 H   0  0  0  0  0  0  0  0  0  0  0  0
   -4.8109  -19.1110   17.8477 H   0  0  0  0  0  0  0  0  0  0  0  0
   -8.0491  -14.1285   19.9965 H   0  0  0  0  0  0  0  0  0  0  0  0
   -9.1272  -12.0898   19.1740 H   0  0  0  0  0  0  0  0  0  0  0  0
  -10.1312  -12.7607   18.1457 H   0  0  0  0  0  0  0  0  0  0  0  0
  -10.4626  -10.3892   16.8104 H   0  0  0  0  0  0  0  0  0  0  0  0
   -9.5283   -9.3797   17.9474 H   0  0  0  0  0  0  0  0  0  0  0  0
   -9.8233   -9.0081   14.9105 H   0  0  0  0  0  0  0  0  0  0  0  0
  -10.2764   -7.8798   16.1862 H   0  0  0  0  0  0  0  0  0  0  0  0
   -8.2248   -7.1909   15.2029 H   0  0  0  0  0  0  0  0  0  0  0  0
   -6.2224   -8.5643   15.4493 H   0  0  0  0  0  0  0  0  0  0  0  0
   -7.3840   -9.1519   14.2527 H   0  0  0  0  0  0  0  0  0  0  0  0
  1  2  1  0
  2  3  1  0
  2  4  1  0
  4  5  1  0
  5  6  2  0
  6  7  1  0
  7  8  2  0
  8  9  1  0
  9 10  2  0
  9 11  1  0
 11 12  1  0
 12 13  1  0
 13 14  2  0
 14 15  1  0
 15 16  2  0
 16 17  1  0
 17 18  1  0
 18 19  1  0
 19 20  1  0
 20 21  1  0
  8  4  1  0
 17 13  1  0
 21 16  1  0
  1 22  1  0
  1 23  1  0
  1 24  1  0
  2 25  1  0
  3 26  1  0
  3 27  1  0
  3 28  1  0
  5 29  1  0
  6 30  1  0
 11 31  1  0
 12 32  1  0
 12 33  1  0
 18 34  1  0
 18 35  1  0
 19 36  1  0
 19 37  1  0
 20 38  1  0
 21 39  1  0
 21 40  1  0
M  END
>  <Energy>  (809) 
293.55684262308256

>  <compound_id>  (809) 
5758

>  <target_id>  (809) 
1

>  <reference_id>  (809) 
115

>  <inspiration_ids>  (809) 
[115, 65]

>  <energy_score>  (809) 
230.5452721297777

>  <distance_score>  (809) 
14.188868014991082

>  <path>  (809) 
/opt/xchem-fragalysis-2/maxwin/BulkDock/SCRATCH/511018/C5758-P115/C5758-P115.minimised.mol

>  <scratch_subdir>  (809) 
/opt/xchem-fragalysis-2/maxwin/BulkDock/SCRATCH/511018/C5758-P115

>  <fragmenstein_runtime>  (809) 
39.53831458091736

>  <fragmenstein_outcome>  (809) 
too moved

>  <fragmenstein_mode>  (809) 
expansion

>  <fragmenstein_error>  (809) 


$$$$
C5758-P65
     RDKit          3D

 40 42  0  0  0  0  0  0  0  0999 V2000
   -2.6769  -15.8142   14.8245 C   0  0  0  0  0  0  0  0  0  0  0  0
   -3.1237  -14.4973   15.4731 C   0  0  0  0  0  0  0  0  0  0  0  0
   -2.1067  -14.0480   16.5205 C   0  0  0  0  0  0  0  0  0  0  0  0
   -4.5096  -14.5364   15.9649 N   0  0  0  0  0  0  0  0  0  0  0  0
   -5.1587  -15.6282   16.4542 C   0  0  0  0  0  0  0  0  0  0  0  0
   -6.4849  -15.3405   16.2871 C   0  0  0  0  0  0  0  0  0  0  0  0
   -6.6510  -14.0342   15.9425 N   0  0  0  0  0  0  0  0  0  0  0  0
   -5.4513  -13.5428   15.6294 C   0  0  0  0  0  0  0  0  0  0  0  0
   -5.1245  -12.0959   15.2136 C   0  0  0  0  0  0  0  0  0  0  0  0
   -4.1629  -11.6365   15.7037 O   0  0  0  0  0  0  0  0  0  0  0  0
   -6.1971  -11.4407   14.2774 N   0  0  0  0  0  0  0  0  0  0  0  0
   -6.3537  -10.0304   13.8264 C   0  0  0  0  0  0  0  0  0  0  0  0
   -5.9352   -9.4368   12.4546 C   0  0  0  0  0  0  0  0  0  0  0  0
   -6.6394   -9.4757   11.3215 N   0  0  0  0  0  0  0  0  0  0  0  0
   -6.2057   -8.4881   10.4715 N   0  0  0  0  0  0  0  0  0  0  0  0
   -5.2921   -7.8261   11.1279 C   0  0  0  0  0  0  0  0  0  0  0  0
   -4.9756   -8.4533   12.2832 N   0  0  0  0  0  0  0  0  0  0  0  0
   -4.0249   -7.8650   13.2121 C   0  0  0  0  0  0  0  0  0  0  0  0
   -3.6301   -6.4174   12.8845 C   0  0  0  0  0  0  0  0  0  0  0  0
   -4.7445   -5.7944   12.2111 N   0  0  0  0  0  0  0  0  0  0  0  0
   -4.8801   -6.4543   10.9362 C   0  0  0  0  0  0  0  0  0  0  0  0
   -2.5819  -16.6192   15.5611 H   0  0  0  0  0  0  0  0  0  0  0  0
   -1.7012  -15.6918   14.3417 H   0  0  0  0  0  0  0  0  0  0  0  0
   -3.3904  -16.1375   14.0586 H   0  0  0  0  0  0  0  0  0  0  0  0
   -3.1156  -13.7552   14.6650 H   0  0  0  0  0  0  0  0  0  0  0  0
   -1.1471  -13.8202   16.0429 H   0  0  0  0  0  0  0  0  0  0  0  0
   -2.4361  -13.1481   17.0481 H   0  0  0  0  0  0  0  0  0  0  0  0
   -1.9169  -14.8294   17.2621 H   0  0  0  0  0  0  0  0  0  0  0  0
   -4.5917  -16.4938   16.7580 H   0  0  0  0  0  0  0  0  0  0  0  0
   -7.3561  -15.9571   16.4543 H   0  0  0  0  0  0  0  0  0  0  0  0
   -6.8565  -12.1492   13.9681 H   0  0  0  0  0  0  0  0  0  0  0  0
   -5.8805   -9.4382   14.6152 H   0  0  0  0  0  0  0  0  0  0  0  0
   -7.4310   -9.8393   13.9132 H   0  0  0  0  0  0  0  0  0  0  0  0
   -3.1452   -8.5168   13.2279 H   0  0  0  0  0  0  0  0  0  0  0  0
   -4.4890   -7.8843   14.2030 H   0  0  0  0  0  0  0  0  0  0  0  0
   -2.7151   -6.3936   12.2801 H   0  0  0  0  0  0  0  0  0  0  0  0
   -3.3942   -5.8840   13.8120 H   0  0  0  0  0  0  0  0  0  0  0  0
   -5.6066   -5.8940   12.7481 H   0  0  0  0  0  0  0  0  0  0  0  0
   -3.9743   -6.2514   10.3763 H   0  0  0  0  0  0  0  0  0  0  0  0
   -5.7435   -6.1404   10.3702 H   0  0  0  0  0  0  0  0  0  0  0  0
  1  2  1  0
  2  3  1  0
  2  4  1  0
  4  5  1  0
  5  6  2  0
  6  7  1  0
  7  8  2  0
  8  9  1  0
  9 10  2  0
  9 11  1  0
 11 12  1  0
 12 13  1  0
 13 14  2  0
 14 15  1  0
 15 16  2  0
 16 17  1  0
 17 18  1  0
 18 19  1  0
 19 20  1  0
 20 21  1  0
  8  4  1  0
 17 13  1  0
 21 16  1  0
  1 22  1  0
  1 23  1  0
  1 24  1  0
  2 25  1  0
  3 26  1  0
  3 27  1  0
  3 28  1  0
  5 29  1  0
  6 30  1  0
 11 31  1  0
 12 32  1  0
 12 33  1  0
 18 34  1  0
 18 35  1  0
 19 36  1  0
 19 37  1  0
 20 38  1  0
 21 39  1  0
 21 40  1  0
M  END
>  <Energy>  (810) 
69.253481856582212

>  <compound_id>  (810) 
5758

>  <target_id>  (810) 
1

>  <reference_id>  (810) 
65

>  <inspiration_ids>  (810) 
[115, 65]

>  <energy_score>  (810) 
34.804733928148266

>  <distance_score>  (810) 
13.502595111257603

>  <path>  (810) 
/opt/xchem-fragalysis-2/maxwin/BulkDock/SCRATCH/511018/C5758-P65/C5758-P65.minimised.mol

>  <scratch_subdir>  (810) 
/opt/xchem-fragalysis-2/maxwin/BulkDock/SCRATCH/511018/C5758-P65

>  <fragmenstein_runtime>  (810) 
24.19471764564514

>  <fragmenstein_outcome>  (810) 
too moved

>  <fragmenstein_mode>  (810) 
expansion

>  <fragmenstein_error>  (810) 


$$$$
C5765-P115
     RDKit          3D

 34 36  0  0  0  0  0  0  0  0999 V2000
   -9.9559  -11.6519   17.9510 O   0  0  0  0  0  0  0  0  0  0  0  0
   -8.9633  -12.0206   18.5202 C   0  0  0  0  0  0  0  0  0  0  0  0
   -9.2079  -13.2792   19.7829 C   0  0  0  0  0  0  0  0  0  0  0  0
   -9.3656  -13.4256   21.7074 C   0  0  0  0  0  0  0  0  0  0  0  0
  -10.3287  -14.6491   22.8855 N   0  0  0  0  0  0  0  0  0  0  0  0
   -8.9516  -15.3010   24.5093 C   0  0  0  0  0  0  0  0  0  0  0  0
   -7.3066  -14.6137   23.9829 C   0  0  0  0  0  0  0  0  0  0  0  0
   -7.8252  -12.9424   22.8296 N   0  0  0  0  0  0  0  0  0  0  0  0
   -7.5640  -11.6882   18.2900 N   0  0  0  0  0  0  0  0  0  0  0  0
   -6.9111  -10.8704   17.2178 C   0  0  0  0  0  0  0  0  0  0  0  0
   -7.2573   -9.4225   16.8322 C   0  0  0  0  0  0  0  0  0  0  0  0
   -8.1681   -8.6072   17.3387 N   0  0  0  0  0  0  0  0  0  0  0  0
   -8.0800   -7.3644   16.7190 N   0  0  0  0  0  0  0  0  0  0  0  0
   -7.1060   -7.4118   15.8407 C   0  0  0  0  0  0  0  0  0  0  0  0
   -6.6057   -8.6931   15.8296 N   0  0  0  0  0  0  0  0  0  0  0  0
   -5.5810   -9.0836   14.8802 C   0  0  0  0  0  0  0  0  0  0  0  0
   -4.8237   -7.8630   14.3036 C   0  0  0  0  0  0  0  0  0  0  0  0
   -5.7044   -6.7641   13.8847 N   0  0  0  0  0  0  0  0  0  0  0  0
   -6.5160   -6.2948   15.0294 C   0  0  0  0  0  0  0  0  0  0  0  0
   -8.4715  -14.0118   19.5377 H   0  0  0  0  0  0  0  0  0  0  0  0
  -10.1491  -13.6317   19.4020 H   0  0  0  0  0  0  0  0  0  0  0  0
   -9.1889  -16.1090   25.2389 H   0  0  0  0  0  0  0  0  0  0  0  0
   -7.0186  -14.4032   25.0276 H   0  0  0  0  0  0  0  0  0  0  0  0
   -7.0022  -12.4873   22.4365 H   0  0  0  0  0  0  0  0  0  0  0  0
   -7.0023  -12.1161   19.0110 H   0  0  0  0  0  0  0  0  0  0  0  0
   -5.8433  -10.8937   17.4660 H   0  0  0  0  0  0  0  0  0  0  0  0
   -7.0431  -11.4698   16.3083 H   0  0  0  0  0  0  0  0  0  0  0  0
   -6.0933   -9.6308   14.0810 H   0  0  0  0  0  0  0  0  0  0  0  0
   -4.8844   -9.7576   15.3878 H   0  0  0  0  0  0  0  0  0  0  0  0
   -4.2235   -8.1871   13.4462 H   0  0  0  0  0  0  0  0  0  0  0  0
   -4.1153   -7.4846   15.0518 H   0  0  0  0  0  0  0  0  0  0  0  0
   -6.3380   -7.1014   13.1614 H   0  0  0  0  0  0  0  0  0  0  0  0
   -7.3111   -5.6374   14.6628 H   0  0  0  0  0  0  0  0  0  0  0  0
   -5.8813   -5.6855   15.6838 H   0  0  0  0  0  0  0  0  0  0  0  0
  1  2  2  0
  2  3  1  0
  3  4  1  0
  4  5  2  0
  5  6  1  0
  6  7  2  0
  7  8  1  0
  2  9  1  0
  9 10  1  0
 10 11  1  0
 11 12  2  0
 12 13  1  0
 13 14  2  0
 14 15  1  0
 15 16  1  0
 16 17  1  0
 17 18  1  0
 18 19  1  0
  8  4  1  0
 15 11  1  0
 19 14  1  0
  3 20  1  0
  3 21  1  0
  6 22  1  0
  7 23  1  0
  8 24  1  0
  9 25  1  0
 10 26  1  0
 10 27  1  0
 16 28  1  0
 16 29  1  0
 17 30  1  0
 17 31  1  0
 18 32  1  0
 19 33  1  0
 19 34  1  0
M  END
>  <Energy>  (811) 
902.13083241737388

>  <compound_id>  (811) 
5765

>  <target_id>  (811) 
1

>  <reference_id>  (811) 
115

>  <inspiration_ids>  (811) 
[115, 65]

>  <energy_score>  (811) 
871.8113175825953

>  <distance_score>  (811) 
12.358417617162168

>  <path>  (811) 
/opt/xchem-fragalysis-2/maxwin/BulkDock/SCRATCH/511018/C5765-P115/C5765-P115.minimised.mol

>  <scratch_subdir>  (811) 
/opt/xchem-fragalysis-2/maxwin/BulkDock/SCRATCH/511018/C5765-P115

>  <fragmenstein_runtime>  (811) 
13.760003328323364

>  <fragmenstein_outcome>  (811) 
too moved

>  <fragmenstein_mode>  (811) 
expansion

>  <fragmenstein_error>  (811) 


$$$$
C5765-P65
     RDKit          3D

 34 36  0  0  0  0  0  0  0  0999 V2000
  -12.5985  -15.6238   20.1992 O   0  0  0  0  0  0  0  0  0  0  0  0
  -11.8882  -14.9424   20.9905 C   0  0  0  0  0  0  0  0  0  0  0  0
  -12.0288  -15.6872   22.8553 C   0  0  0  0  0  0  0  0  0  0  0  0
  -13.1471  -15.8171   24.2460 C   0  0  0  0  0  0  0  0  0  0  0  0
  -14.4001  -16.3455   24.3270 N   0  0  0  0  0  0  0  0  0  0  0  0
  -15.1417  -15.7883   25.4272 C   0  0  0  0  0  0  0  0  0  0  0  0
  -14.2980  -15.0383   26.2055 C   0  0  0  0  0  0  0  0  0  0  0  0
  -13.0429  -15.1374   25.5918 N   0  0  0  0  0  0  0  0  0  0  0  0
  -10.6609  -13.4744   20.6383 N   0  0  0  0  0  0  0  0  0  0  0  0
  -10.0799  -12.7683   19.0601 C   0  0  0  0  0  0  0  0  0  0  0  0
   -9.1209  -11.4916   18.3916 C   0  0  0  0  0  0  0  0  0  0  0  0
   -7.7918  -11.5611   18.2508 N   0  0  0  0  0  0  0  0  0  0  0  0
   -7.3116  -10.4762   17.5481 N   0  0  0  0  0  0  0  0  0  0  0  0
   -8.3420   -9.7829   17.1410 C   0  0  0  0  0  0  0  0  0  0  0  0
   -9.4966  -10.4183   17.5678 N   0  0  0  0  0  0  0  0  0  0  0  0
  -10.7696   -9.9858   17.0394 C   0  0  0  0  0  0  0  0  0  0  0  0
  -10.7312   -8.5011   16.5978 C   0  0  0  0  0  0  0  0  0  0  0  0
   -9.6001   -8.1893   15.7205 N   0  0  0  0  0  0  0  0  0  0  0  0
   -8.3221   -8.4991   16.3746 C   0  0  0  0  0  0  0  0  0  0  0  0
  -11.5231  -14.7929   23.0220 H   0  0  0  0  0  0  0  0  0  0  0  0
  -11.5495  -16.5766   23.1594 H   0  0  0  0  0  0  0  0  0  0  0  0
  -16.1876  -16.0285   25.5607 H   0  0  0  0  0  0  0  0  0  0  0  0
  -14.4265  -14.4981   27.1317 H   0  0  0  0  0  0  0  0  0  0  0  0
  -12.2140  -14.7447   26.0006 H   0  0  0  0  0  0  0  0  0  0  0  0
  -10.1689  -13.2136   21.5056 H   0  0  0  0  0  0  0  0  0  0  0  0
   -9.2064  -13.4241   19.1021 H   0  0  0  0  0  0  0  0  0  0  0  0
  -10.8013  -12.6684   18.3297 H   0  0  0  0  0  0  0  0  0  0  0  0
  -10.9973  -10.6379   16.1887 H   0  0  0  0  0  0  0  0  0  0  0  0
  -11.5292  -10.1277   17.8063 H   0  0  0  0  0  0  0  0  0  0  0  0
  -10.6936   -7.8554   17.4848 H   0  0  0  0  0  0  0  0  0  0  0  0
  -11.6642   -8.2670   16.0736 H   0  0  0  0  0  0  0  0  0  0  0  0
   -9.6064   -7.1978   15.4836 H   0  0  0  0  0  0  0  0  0  0  0  0
   -8.0635   -7.6892   17.0673 H   0  0  0  0  0  0  0  0  0  0  0  0
   -7.5372   -8.5398   15.6121 H   0  0  0  0  0  0  0  0  0  0  0  0
  1  2  2  0
  2  3  1  0
  3  4  1  0
  4  5  2  0
  5  6  1  0
  6  7  2  0
  7  8  1  0
  2  9  1  0
  9 10  1  0
 10 11  1  0
 11 12  2  0
 12 13  1  0
 13 14  2  0
 14 15  1  0
 15 16  1  0
 16 17  1  0
 17 18  1  0
 18 19  1  0
  8  4  1  0
 15 11  1  0
 19 14  1  0
  3 20  1  0
  3 21  1  0
  6 22  1  0
  7 23  1  0
  8 24  1  0
  9 25  1  0
 10 26  1  0
 10 27  1  0
 16 28  1  0
 16 29  1  0
 17 30  1  0
 17 31  1  0
 18 32  1  0
 19 33  1  0
 19 34  1  0
M  END
>  <Energy>  (812) 
365.39148432548177

>  <compound_id>  (812) 
5765

>  <target_id>  (812) 
1

>  <reference_id>  (812) 
65

>  <inspiration_ids>  (812) 
[115, 65]

>  <energy_score>  (812) 
335.0719694906917

>  <distance_score>  (812) 
13.652818784401898

>  <path>  (812) 
/opt/xchem-fragalysis-2/maxwin/BulkDock/SCRATCH/511018/C5765-P65/C5765-P65.minimised.mol

>  <scratch_subdir>  (812) 
/opt/xchem-fragalysis-2/maxwin/BulkDock/SCRATCH/511018/C5765-P65

>  <fragmenstein_runtime>  (812) 
24.17377257347107

>  <fragmenstein_outcome>  (812) 
too moved

>  <fragmenstein_mode>  (812) 
expansion

>  <fragmenstein_error>  (812) 


$$$$
C5764-P115
     RDKit          3D

 37 40  0  0  0  0  0  0  0  0999 V2000
   -6.7606  -14.4852   16.0447 O   0  0  0  0  0  0  0  0  0  0  0  0
   -7.5677  -14.0419   16.7571 C   0  0  0  0  0  0  0  0  0  0  0  0
   -8.3938  -12.4950   16.4756 N   0  0  0  0  0  0  0  0  0  0  0  0
   -8.3720  -11.2805   14.9246 C   0  0  0  0  0  0  0  0  0  0  0  0
   -7.6302   -9.7521   14.5728 C   0  0  0  0  0  0  0  0  0  0  0  0
   -7.4841   -8.6952   15.3608 N   0  0  0  0  0  0  0  0  0  0  0  0
   -6.6775   -7.7562   14.7580 N   0  0  0  0  0  0  0  0  0  0  0  0
   -6.2906   -8.2462   13.6058 C   0  0  0  0  0  0  0  0  0  0  0  0
   -6.9396   -9.4452   13.3997 N   0  0  0  0  0  0  0  0  0  0  0  0
   -6.7741  -10.1757   12.1625 C   0  0  0  0  0  0  0  0  0  0  0  0
   -5.4694   -9.7689   11.4468 C   0  0  0  0  0  0  0  0  0  0  0  0
   -5.3030   -8.3146   11.3291 N   0  0  0  0  0  0  0  0  0  0  0  0
   -5.2891   -7.6770   12.6556 C   0  0  0  0  0  0  0  0  0  0  0  0
   -8.0215  -15.3438   18.0511 C   0  0  0  0  0  0  0  0  0  0  0  0
   -7.9462  -16.6363   17.4294 C   0  0  0  0  0  0  0  0  0  0  0  0
   -6.8603  -17.9151   18.4491 S   0  0  0  0  0  0  0  0  0  0  0  0
   -7.0739  -16.8122   19.8194 C   0  0  0  0  0  0  0  0  0  0  0  0
   -6.6024  -17.5486   20.9017 C   0  0  0  0  0  0  0  0  0  0  0  0
   -5.6493  -18.3453   20.5671 N   0  0  0  0  0  0  0  0  0  0  0  0
   -6.1802  -19.4961   20.9068 C   0  0  0  0  0  0  0  0  0  0  0  0
   -7.0043  -19.3049   21.9954 C   0  0  0  0  0  0  0  0  0  0  0  0
   -7.2115  -17.9875   22.0053 N   0  0  0  0  0  0  0  0  0  0  0  0
   -8.4022  -15.9019   19.3677 N   0  0  0  0  0  0  0  0  0  0  0  0
   -8.9959  -12.2803   17.2848 H   0  0  0  0  0  0  0  0  0  0  0  0
   -9.4495  -11.0614   14.7873 H   0  0  0  0  0  0  0  0  0  0  0  0
   -8.3539  -11.9019   13.9988 H   0  0  0  0  0  0  0  0  0  0  0  0
   -7.6474   -9.9471   11.5422 H   0  0  0  0  0  0  0  0  0  0  0  0
   -6.7664  -11.2460   12.3824 H   0  0  0  0  0  0  0  0  0  0  0  0
   -5.4596  -10.2123   10.4452 H   0  0  0  0  0  0  0  0  0  0  0  0
   -4.6060  -10.1870   11.9803 H   0  0  0  0  0  0  0  0  0  0  0  0
   -6.0803   -7.9524   10.7843 H   0  0  0  0  0  0  0  0  0  0  0  0
   -5.4510   -6.6000   12.5403 H   0  0  0  0  0  0  0  0  0  0  0  0
   -4.2901   -7.7988   13.0907 H   0  0  0  0  0  0  0  0  0  0  0  0
   -8.0448  -16.8660   16.4059 H   0  0  0  0  0  0  0  0  0  0  0  0
   -5.6939  -20.3490   20.4570 H   0  0  0  0  0  0  0  0  0  0  0  0
   -7.4644  -19.9629   22.6899 H   0  0  0  0  0  0  0  0  0  0  0  0
   -7.6958  -17.4303   22.6837 H   0  0  0  0  0  0  0  0  0  0  0  0
  1  2  2  0
  2  3  1  0
  3  4  1  0
  4  5  1  0
  5  6  2  0
  6  7  1  0
  7  8  2  0
  8  9  1  0
  9 10  1  0
 10 11  1  0
 11 12  1  0
 12 13  1  0
  2 14  1  0
 14 15  2  0
 15 16  1  0
 16 17  1  0
 17 18  1  0
 18 19  2  0
 19 20  1  0
 20 21  2  0
 21 22  1  0
 17 23  2  0
  9  5  1  0
 23 14  1  0
 13  8  1  0
 22 18  1  0
  3 24  1  0
  4 25  1  0
  4 26  1  0
 10 27  1  0
 10 28  1  0
 11 29  1  0
 11 30  1  0
 12 31  1  0
 13 32  1  0
 13 33  1  0
 15 34  1  0
 20 35  1  0
 21 36  1  0
 22 37  1  0
M  END
>  <Energy>  (813) 
450.54546876986279

>  <compound_id>  (813) 
5764

>  <target_id>  (813) 
1

>  <reference_id>  (813) 
115

>  <inspiration_ids>  (813) 
[115, 65]

>  <energy_score>  (813) 
361.8318110001255

>  <distance_score>  (813) 
11.337891703297753

>  <path>  (813) 
/opt/xchem-fragalysis-2/maxwin/BulkDock/SCRATCH/511018/C5764-P115/C5764-P115.minimised.mol

>  <scratch_subdir>  (813) 
/opt/xchem-fragalysis-2/maxwin/BulkDock/SCRATCH/511018/C5764-P115

>  <fragmenstein_runtime>  (813) 
19.90328097343445

>  <fragmenstein_outcome>  (813) 
too moved

>  <fragmenstein_mode>  (813) 
expansion

>  <fragmenstein_error>  (813) 


$$$$
C5764-P65
     RDKit          3D

 37 40  0  0  0  0  0  0  0  0999 V2000
  -10.8771  -14.8129   18.9483 O   0  0  0  0  0  0  0  0  0  0  0  0
   -9.9159  -15.0663   19.3225 C   0  0  0  0  0  0  0  0  0  0  0  0
   -8.8670  -13.7059   19.1349 N   0  0  0  0  0  0  0  0  0  0  0  0
   -9.0608  -12.3688   18.4719 C   0  0  0  0  0  0  0  0  0  0  0  0
  -10.7985  -11.8959   17.7635 C   0  0  0  0  0  0  0  0  0  0  0  0
  -11.3344  -10.7152   18.1931 N   0  0  0  0  0  0  0  0  0  0  0  0
  -12.2597  -10.0829   17.4035 N   0  0  0  0  0  0  0  0  0  0  0  0
  -12.3075  -10.6421   16.2296 C   0  0  0  0  0  0  0  0  0  0  0  0
  -11.4663  -11.7814   16.1960 N   0  0  0  0  0  0  0  0  0  0  0  0
  -10.8524  -12.0006   14.8416 C   0  0  0  0  0  0  0  0  0  0  0  0
  -10.8634  -10.7379   13.9378 C   0  0  0  0  0  0  0  0  0  0  0  0
  -12.2208  -10.2536   13.7360 N   0  0  0  0  0  0  0  0  0  0  0  0
  -12.8978   -9.9824   15.0130 C   0  0  0  0  0  0  0  0  0  0  0  0
  -10.0419  -16.7676   20.0952 C   0  0  0  0  0  0  0  0  0  0  0  0
   -8.7734  -17.7186   21.3062 C   0  0  0  0  0  0  0  0  0  0  0  0
   -9.9963  -18.8848   22.9178 S   0  0  0  0  0  0  0  0  0  0  0  0
  -11.4662  -19.6990   21.0441 C   0  0  0  0  0  0  0  0  0  0  0  0
  -11.9241  -21.0854   21.5795 C   0  0  0  0  0  0  0  0  0  0  0  0
  -12.0380  -22.2242   20.9346 N   0  0  0  0  0  0  0  0  0  0  0  0
  -12.5939  -23.1241   21.8245 C   0  0  0  0  0  0  0  0  0  0  0  0
  -12.7027  -22.5710   23.0739 C   0  0  0  0  0  0  0  0  0  0  0  0
  -12.2390  -21.2989   22.9175 N   0  0  0  0  0  0  0  0  0  0  0  0
  -11.7698  -18.1314   19.8616 N   0  0  0  0  0  0  0  0  0  0  0  0
   -8.0394  -13.9229   19.5547 H   0  0  0  0  0  0  0  0  0  0  0  0
   -8.5202  -11.5716   18.9315 H   0  0  0  0  0  0  0  0  0  0  0  0
   -8.4571  -12.5152   17.5733 H   0  0  0  0  0  0  0  0  0  0  0  0
   -9.8061  -12.2922   14.9058 H   0  0  0  0  0  0  0  0  0  0  0  0
  -11.4435  -12.7956   14.3789 H   0  0  0  0  0  0  0  0  0  0  0  0
  -10.4346  -11.0010   12.9646 H   0  0  0  0  0  0  0  0  0  0  0  0
  -10.2353   -9.9456   14.3595 H   0  0  0  0  0  0  0  0  0  0  0  0
  -12.2258   -9.4169   13.1599 H   0  0  0  0  0  0  0  0  0  0  0  0
  -13.9482  -10.2786   14.9222 H   0  0  0  0  0  0  0  0  0  0  0  0
  -12.8860   -8.8981   15.1810 H   0  0  0  0  0  0  0  0  0  0  0  0
   -7.8453  -17.3613   21.7302 H   0  0  0  0  0  0  0  0  0  0  0  0
  -12.8450  -24.1313   21.5125 H   0  0  0  0  0  0  0  0  0  0  0  0
  -13.0496  -22.9598   24.0226 H   0  0  0  0  0  0  0  0  0  0  0  0
  -12.2006  -20.5806   23.6294 H   0  0  0  0  0  0  0  0  0  0  0  0
  1  2  2  0
  2  3  1  0
  3  4  1  0
  4  5  1  0
  5  6  2  0
  6  7  1  0
  7  8  2  0
  8  9  1  0
  9 10  1  0
 10 11  1  0
 11 12  1  0
 12 13  1  0
  2 14  1  0
 14 15  2  0
 15 16  1  0
 16 17  1  0
 17 18  1  0
 18 19  2  0
 19 20  1  0
 20 21  2  0
 21 22  1  0
 17 23  2  0
  9  5  1  0
 23 14  1  0
 13  8  1  0
 22 18  1  0
  3 24  1  0
  4 25  1  0
  4 26  1  0
 10 27  1  0
 10 28  1  0
 11 29  1  0
 11 30  1  0
 12 31  1  0
 13 32  1  0
 13 33  1  0
 15 34  1  0
 20 35  1  0
 21 36  1  0
 22 37  1  0
M  END
>  <Energy>  (814) 
1082.4265530072744

>  <compound_id>  (814) 
5764

>  <target_id>  (814) 
1

>  <reference_id>  (814) 
65

>  <inspiration_ids>  (814) 
[115, 65]

>  <energy_score>  (814) 
993.7128952375645

>  <distance_score>  (814) 
13.184011151786695

>  <path>  (814) 
/opt/xchem-fragalysis-2/maxwin/BulkDock/SCRATCH/511018/C5764-P65/C5764-P65.minimised.mol

>  <scratch_subdir>  (814) 
/opt/xchem-fragalysis-2/maxwin/BulkDock/SCRATCH/511018/C5764-P65

>  <fragmenstein_runtime>  (814) 
25.108160734176636

>  <fragmenstein_outcome>  (814) 
too moved

>  <fragmenstein_mode>  (814) 
expansion

>  <fragmenstein_error>  (814) 


$$$$
C5778-P70
     RDKit          3D

 49 50  0  0  0  0  0  0  0  0999 V2000
   -6.2895  -17.5722   18.9515 C   0  0  0  0  0  0  0  0  0  0  0  0
   -5.4905  -16.5631   19.7911 C   0  0  0  0  0  0  0  0  0  0  0  0
   -4.9461  -15.3640   18.9671 C   0  0  0  0  0  0  0  0  0  0  0  0
   -4.1809  -14.1752   19.7479 C   0  0  0  0  0  0  0  0  0  0  0  0
   -2.8328  -14.5945   20.3660 C   0  0  0  0  0  0  0  0  0  0  0  0
   -1.9875  -13.4624   20.9889 C   0  0  0  0  0  0  0  0  0  0  0  0
   -1.7578  -12.2832   20.0468 C   0  0  0  0  0  0  0  0  0  0  0  0
   -0.9729  -11.2065   20.6693 N   0  0  0  0  0  0  0  0  0  0  0  0
   -1.1600  -10.4910   21.9251 C   0  0  0  0  0  0  0  0  0  0  0  0
   -2.0463  -10.5451   22.7312 O   0  0  0  0  0  0  0  0  0  0  0  0
    0.1170   -9.6122   22.1864 C   0  0  0  0  0  0  0  0  0  0  0  0
    0.4366   -8.9491   21.0294 F   0  0  0  0  0  0  0  0  0  0  0  0
    0.0268   -8.5808   23.3425 C   0  0  0  0  0  0  0  0  0  0  0  0
    1.1499   -7.5111   23.2722 C   0  0  0  0  0  0  0  0  0  0  0  0
    1.9846   -7.3944   24.5493 C   0  0  0  0  0  0  0  0  0  0  0  0
    1.1445   -7.1990   25.7224 N   0  0  0  0  0  0  0  0  0  0  0  0
    0.0763   -8.1868   25.8342 C   0  0  0  0  0  0  0  0  0  0  0  0
    0.0226   -9.2437   24.7257 C   0  0  0  0  0  0  0  0  0  0  0  0
   -3.0452  -11.7955   19.3807 C   0  0  0  0  0  0  0  0  0  0  0  0
   -3.9165  -12.9469   18.8189 C   0  0  0  0  0  0  0  0  0  0  0  0
   -6.6442  -18.3921   19.5832 H   0  0  0  0  0  0  0  0  0  0  0  0
   -7.1575  -17.0901   18.4914 H   0  0  0  0  0  0  0  0  0  0  0  0
   -5.6649  -17.9926   18.1573 H   0  0  0  0  0  0  0  0  0  0  0  0
   -6.1328  -16.1797   20.5921 H   0  0  0  0  0  0  0  0  0  0  0  0
   -4.6510  -17.0807   20.2681 H   0  0  0  0  0  0  0  0  0  0  0  0
   -5.7946  -14.9054   18.4429 H   0  0  0  0  0  0  0  0  0  0  0  0
   -4.2700  -15.7471   18.1923 H   0  0  0  0  0  0  0  0  0  0  0  0
   -4.8509  -13.8534   20.5525 H   0  0  0  0  0  0  0  0  0  0  0  0
   -2.2284  -15.0783   19.5872 H   0  0  0  0  0  0  0  0  0  0  0  0
   -3.0095  -15.3588   21.1322 H   0  0  0  0  0  0  0  0  0  0  0  0
   -2.4274  -13.1528   21.9368 H   0  0  0  0  0  0  0  0  0  0  0  0
   -1.0118  -13.8833   21.2678 H   0  0  0  0  0  0  0  0  0  0  0  0
   -1.1098  -12.6481   19.2379 H   0  0  0  0  0  0  0  0  0  0  0  0
   -0.0624  -10.9697   20.2845 H   0  0  0  0  0  0  0  0  0  0  0  0
    0.9441  -10.3047   22.3851 H   0  0  0  0  0  0  0  0  0  0  0  0
   -0.9289   -8.0656   23.2285 H   0  0  0  0  0  0  0  0  0  0  0  0
    1.8307   -7.7140   22.4373 H   0  0  0  0  0  0  0  0  0  0  0  0
    0.6954   -6.5375   23.0567 H   0  0  0  0  0  0  0  0  0  0  0  0
    2.6071   -8.2889   24.6752 H   0  0  0  0  0  0  0  0  0  0  0  0
    2.6766   -6.5506   24.4542 H   0  0  0  0  0  0  0  0  0  0  0  0
    1.7229   -7.2014   26.5624 H   0  0  0  0  0  0  0  0  0  0  0  0
    0.1609   -8.6930   26.8024 H   0  0  0  0  0  0  0  0  0  0  0  0
   -0.8672   -7.6302   25.8427 H   0  0  0  0  0  0  0  0  0  0  0  0
    0.8770   -9.9256   24.8229 H   0  0  0  0  0  0  0  0  0  0  0  0
   -0.8765   -9.8532   24.8608 H   0  0  0  0  0  0  0  0  0  0  0  0
   -2.7809  -11.1290   18.5487 H   0  0  0  0  0  0  0  0  0  0  0  0
   -3.6295  -11.1709   20.0480 H   0  0  0  0  0  0  0  0  0  0  0  0
   -4.8771  -12.5413   18.4840 H   0  0  0  0  0  0  0  0  0  0  0  0
   -3.4186  -13.3183   17.9126 H   0  0  0  0  0  0  0  0  0  0  0  0
  1  2  1  0
  2  3  1  0
  3  4  1  0
  4  5  1  0
  5  6  1  0
  6  7  1  0
  7  8  1  0
  8  9  1  0
  9 10  2  0
  9 11  1  0
 11 12  1  0
 11 13  1  0
 13 14  1  0
 14 15  1  0
 15 16  1  0
 16 17  1  0
 17 18  1  0
  7 19  1  0
 19 20  1  0
 20  4  1  0
 18 13  1  0
  1 21  1  0
  1 22  1  0
  1 23  1  0
  2 24  1  0
  2 25  1  0
  3 26  1  0
  3 27  1  0
  4 28  1  0
  5 29  1  0
  5 30  1  0
  6 31  1  0
  6 32  1  0
  7 33  1  0
  8 34  1  0
 11 35  1  0
 13 36  1  0
 14 37  1  0
 14 38  1  0
 15 39  1  0
 15 40  1  0
 16 41  1  0
 17 42  1  0
 17 43  1  0
 18 44  1  0
 18 45  1  0
 19 46  1  0
 19 47  1  0
 20 48  1  0
 20 49  1  0
M  END
>  <Energy>  (815) 
39.292294946982921

>  <compound_id>  (815) 
5778

>  <target_id>  (815) 
1

>  <reference_id>  (815) 
70

>  <inspiration_ids>  (815) 
[70, 9]

>  <energy_score>  (815) 
-30.387405769240218

>  <distance_score>  (815) 
14.093999470219353

>  <path>  (815) 
/opt/xchem-fragalysis-2/maxwin/BulkDock/SCRATCH/511018/C5778-P70/C5778-P70.minimised.mol

>  <scratch_subdir>  (815) 
/opt/xchem-fragalysis-2/maxwin/BulkDock/SCRATCH/511018/C5778-P70

>  <fragmenstein_runtime>  (815) 
26.53426480293274

>  <fragmenstein_outcome>  (815) 
too moved

>  <fragmenstein_mode>  (815) 
expansion

>  <fragmenstein_error>  (815) 


$$$$
C5778-P9
     RDKit          3D

 49 50  0  0  0  0  0  0  0  0999 V2000
   -7.9258  -10.3698   15.2501 C   0  0  0  0  0  0  0  0  0  0  0  0
   -7.7212   -8.8316   15.3635 C   0  0  0  0  0  0  0  0  0  0  0  0
   -7.0022   -8.4356   16.6788 C   0  0  0  0  0  0  0  0  0  0  0  0
   -7.0468   -6.9728   17.4466 C   0  0  0  0  0  0  0  0  0  0  0  0
   -5.6577   -5.5779   17.3074 C   0  0  0  0  0  0  0  0  0  0  0  0
   -5.2024   -4.4323   18.9737 C   0  0  0  0  0  0  0  0  0  0  0  0
   -6.0483   -4.7331   20.7678 C   0  0  0  0  0  0  0  0  0  0  0  0
   -4.7533   -3.8495   21.9829 N   0  0  0  0  0  0  0  0  0  0  0  0
   -4.9725   -2.9751   23.6735 C   0  0  0  0  0  0  0  0  0  0  0  0
   -6.1213   -2.7708   24.2016 O   0  0  0  0  0  0  0  0  0  0  0  0
   -3.4886   -2.1557   24.8340 C   0  0  0  0  0  0  0  0  0  0  0  0
   -3.9809   -2.4365   26.1810 F   0  0  0  0  0  0  0  0  0  0  0  0
   -2.7500   -0.6918   25.8565 C   0  0  0  0  0  0  0  0  0  0  0  0
   -2.2204   -1.1841   27.2673 C   0  0  0  0  0  0  0  0  0  0  0  0
   -1.2063   -0.2651   27.9318 C   0  0  0  0  0  0  0  0  0  0  0  0
   -1.7765    1.0500   28.1663 N   0  0  0  0  0  0  0  0  0  0  0  0
   -2.1287    1.6814   26.9065 C   0  0  0  0  0  0  0  0  0  0  0  0
   -3.1292    0.8926   26.0295 C   0  0  0  0  0  0  0  0  0  0  0  0
   -7.4452   -6.3378   20.6519 C   0  0  0  0  0  0  0  0  0  0  0  0
   -8.1811   -7.3135   19.0132 C   0  0  0  0  0  0  0  0  0  0  0  0
   -8.5681  -10.7386   16.0557 H   0  0  0  0  0  0  0  0  0  0  0  0
   -8.3999  -10.6107   14.2939 H   0  0  0  0  0  0  0  0  0  0  0  0
   -6.9634  -10.8879   15.3023 H   0  0  0  0  0  0  0  0  0  0  0  0
   -8.7007   -8.3415   15.3207 H   0  0  0  0  0  0  0  0  0  0  0  0
   -7.1366   -8.4709   14.5106 H   0  0  0  0  0  0  0  0  0  0  0  0
   -5.9703   -8.7946   16.6626 H   0  0  0  0  0  0  0  0  0  0  0  0
   -7.6457   -9.0404   17.3094 H   0  0  0  0  0  0  0  0  0  0  0  0
   -7.7678   -6.4868   16.7570 H   0  0  0  0  0  0  0  0  0  0  0  0
   -4.7340   -6.0315   16.9103 H   0  0  0  0  0  0  0  0  0  0  0  0
   -6.0170   -4.8571   16.5528 H   0  0  0  0  0  0  0  0  0  0  0  0
   -5.4634   -3.4044   18.6739 H   0  0  0  0  0  0  0  0  0  0  0  0
   -4.1081   -4.4458   19.1037 H   0  0  0  0  0  0  0  0  0  0  0  0
   -5.3061   -5.4746   21.0065 H   0  0  0  0  0  0  0  0  0  0  0  0
   -3.8322   -3.9696   21.8173 H   0  0  0  0  0  0  0  0  0  0  0  0
   -2.7761   -2.9129   24.6041 H   0  0  0  0  0  0  0  0  0  0  0  0
   -1.8405   -0.3943   25.3978 H   0  0  0  0  0  0  0  0  0  0  0  0
   -3.0530   -1.3113   27.9445 H   0  0  0  0  0  0  0  0  0  0  0  0
   -1.7470   -2.1579   27.2068 H   0  0  0  0  0  0  0  0  0  0  0  0
   -0.9186   -0.6963   28.8975 H   0  0  0  0  0  0  0  0  0  0  0  0
   -0.2897   -0.1932   27.3353 H   0  0  0  0  0  0  0  0  0  0  0  0
   -1.0882    1.6337   28.6393 H   0  0  0  0  0  0  0  0  0  0  0  0
   -2.5578    2.6685   27.1171 H   0  0  0  0  0  0  0  0  0  0  0  0
   -1.2141    1.8703   26.3293 H   0  0  0  0  0  0  0  0  0  0  0  0
   -4.1299    1.1355   26.3780 H   0  0  0  0  0  0  0  0  0  0  0  0
   -3.0342    1.4321   25.0902 H   0  0  0  0  0  0  0  0  0  0  0  0
   -7.5585   -6.8486   21.6119 H   0  0  0  0  0  0  0  0  0  0  0  0
   -8.5649   -6.2198   20.4908 H   0  0  0  0  0  0  0  0  0  0  0  0
   -9.2496   -7.0659   18.8227 H   0  0  0  0  0  0  0  0  0  0  0  0
   -8.2149   -8.3913   19.1959 H   0  0  0  0  0  0  0  0  0  0  0  0
  1  2  1  0
  2  3  1  0
  3  4  1  0
  4  5  1  0
  5  6  1  0
  6  7  1  0
  7  8  1  0
  8  9  1  0
  9 10  2  0
  9 11  1  0
 11 12  1  0
 11 13  1  0
 13 14  1  0
 14 15  1  0
 15 16  1  0
 16 17  1  0
 17 18  1  0
  7 19  1  0
 19 20  1  0
 20  4  1  0
 18 13  1  0
  1 21  1  0
  1 22  1  0
  1 23  1  0
  2 24  1  0
  2 25  1  0
  3 26  1  0
  3 27  1  0
  4 28  1  0
  5 29  1  0
  5 30  1  0
  6 31  1  0
  6 32  1  0
  7 33  1  0
  8 34  1  0
 11 35  1  0
 13 36  1  0
 14 37  1  0
 14 38  1  0
 15 39  1  0
 15 40  1  0
 16 41  1  0
 17 42  1  0
 17 43  1  0
 18 44  1  0
 18 45  1  0
 19 46  1  0
 19 47  1  0
 20 48  1  0
 20 49  1  0
M  END
>  <Energy>  (816) 
837.28345908715858

>  <compound_id>  (816) 
5778

>  <target_id>  (816) 
1

>  <reference_id>  (816) 
9

>  <inspiration_ids>  (816) 
[70, 9]

>  <energy_score>  (816) 
767.6037583709376

>  <distance_score>  (816) 
12.229269675474022

>  <path>  (816) 
/opt/xchem-fragalysis-2/maxwin/BulkDock/SCRATCH/511018/C5778-P9/C5778-P9.minimised.mol

>  <scratch_subdir>  (816) 
/opt/xchem-fragalysis-2/maxwin/BulkDock/SCRATCH/511018/C5778-P9

>  <fragmenstein_runtime>  (816) 
20.329641103744507

>  <fragmenstein_outcome>  (816) 
too moved

>  <fragmenstein_mode>  (816) 
expansion

>  <fragmenstein_error>  (816) 


$$$$
C5782-P70
     RDKit          3D

 55 57  0  0  0  0  0  0  0  0999 V2000
   -7.9412   -3.7881   22.4058 C   0  0  0  0  0  0  0  0  0  0  0  0
   -9.4006   -3.3406   22.2705 C   0  0  0  0  0  0  0  0  0  0  0  0
   -9.5455   -1.8209   22.2938 C   0  0  0  0  0  0  0  0  0  0  0  0
  -10.0280   -3.9261   21.0342 C   0  0  0  0  0  0  0  0  0  0  0  0
   -9.3864   -3.9057   19.8221 N   0  0  0  0  0  0  0  0  0  0  0  0
  -10.2144   -4.5467   19.0243 C   0  0  0  0  0  0  0  0  0  0  0  0
  -11.3257   -4.9340   19.7216 N   0  0  0  0  0  0  0  0  0  0  0  0
  -11.2193   -4.5586   21.0221 N   0  0  0  0  0  0  0  0  0  0  0  0
  -12.4772   -5.6776   19.1545 C   0  0  0  0  0  0  0  0  0  0  0  0
  -12.1018   -6.4451   17.8330 C   0  0  0  0  0  0  0  0  0  0  0  0
  -13.1566   -7.3265   17.1260 N   0  0  0  0  0  0  0  0  0  0  0  0
  -13.1671   -7.9326   15.7593 C   0  0  0  0  0  0  0  0  0  0  0  0
  -12.3914   -7.8148   14.8451 O   0  0  0  0  0  0  0  0  0  0  0  0
  -14.3857   -8.9602   15.4900 C   0  0  0  0  0  0  0  0  0  0  0  0
  -14.0913  -10.5523   15.2848 C   0  0  0  0  0  0  0  0  0  0  0  0
  -15.1212  -11.3085   16.1492 C   0  0  0  0  0  0  0  0  0  0  0  0
  -14.0731  -11.1989   13.8138 C   0  0  0  0  0  0  0  0  0  0  0  0
  -13.0642  -12.3791   13.6517 C   0  0  0  0  0  0  0  0  0  0  0  0
  -13.6705  -13.7908   13.7924 C   0  0  0  0  0  0  0  0  0  0  0  0
  -14.8187  -14.0769   12.9308 N   0  0  0  0  0  0  0  0  0  0  0  0
  -15.3267  -12.8739   12.2786 C   0  0  0  0  0  0  0  0  0  0  0  0
  -15.4385  -11.6727   13.2357 C   0  0  0  0  0  0  0  0  0  0  0  0
  -11.3186   -5.4572   16.9340 C   0  0  0  0  0  0  0  0  0  0  0  0
  -10.0283   -4.9157   17.6003 C   0  0  0  0  0  0  0  0  0  0  0  0
   -7.3157   -3.3882   21.6035 H   0  0  0  0  0  0  0  0  0  0  0  0
   -7.5359   -3.4868   23.3720 H   0  0  0  0  0  0  0  0  0  0  0  0
   -7.8686   -4.8812   22.3561 H   0  0  0  0  0  0  0  0  0  0  0  0
   -9.9412   -3.7378   23.1403 H   0  0  0  0  0  0  0  0  0  0  0  0
  -10.6038   -1.5358   22.2729 H   0  0  0  0  0  0  0  0  0  0  0  0
   -9.0800   -1.3801   21.4114 H   0  0  0  0  0  0  0  0  0  0  0  0
   -9.1115   -1.3962   23.2007 H   0  0  0  0  0  0  0  0  0  0  0  0
  -13.2613   -4.9359   18.9703 H   0  0  0  0  0  0  0  0  0  0  0  0
  -12.8155   -6.3793   19.9241 H   0  0  0  0  0  0  0  0  0  0  0  0
  -11.4001   -7.1898   18.1918 H   0  0  0  0  0  0  0  0  0  0  0  0
  -13.9231   -7.7105   17.6660 H   0  0  0  0  0  0  0  0  0  0  0  0
  -14.9043   -8.5923   14.5959 H   0  0  0  0  0  0  0  0  0  0  0  0
  -15.0862   -8.8308   16.3238 H   0  0  0  0  0  0  0  0  0  0  0  0
  -13.0850  -10.6696   15.6973 H   0  0  0  0  0  0  0  0  0  0  0  0
  -16.1390  -10.9704   15.9204 H   0  0  0  0  0  0  0  0  0  0  0  0
  -15.1036  -12.3921   16.0238 H   0  0  0  0  0  0  0  0  0  0  0  0
  -14.9657  -11.0731   17.2048 H   0  0  0  0  0  0  0  0  0  0  0  0
  -13.6954  -10.3995   13.1607 H   0  0  0  0  0  0  0  0  0  0  0  0
  -12.6293  -12.3084   12.6440 H   0  0  0  0  0  0  0  0  0  0  0  0
  -12.2168  -12.2349   14.3261 H   0  0  0  0  0  0  0  0  0  0  0  0
  -13.9714  -13.9641   14.8279 H   0  0  0  0  0  0  0  0  0  0  0  0
  -12.9090  -14.5371   13.5498 H   0  0  0  0  0  0  0  0  0  0  0  0
  -15.5555  -14.4856   13.5043 H   0  0  0  0  0  0  0  0  0  0  0  0
  -16.3157  -13.0947   11.8608 H   0  0  0  0  0  0  0  0  0  0  0  0
  -14.6885  -12.6154   11.4249 H   0  0  0  0  0  0  0  0  0  0  0  0
  -15.8984  -10.8305   12.7038 H   0  0  0  0  0  0  0  0  0  0  0  0
  -16.1504  -11.9508   14.0161 H   0  0  0  0  0  0  0  0  0  0  0  0
  -11.9785   -4.6176   16.6788 H   0  0  0  0  0  0  0  0  0  0  0  0
  -11.0424   -5.9268   15.9847 H   0  0  0  0  0  0  0  0  0  0  0  0
   -9.6672   -4.0498   17.0342 H   0  0  0  0  0  0  0  0  0  0  0  0
   -9.2470   -5.6822   17.5456 H   0  0  0  0  0  0  0  0  0  0  0  0
  1  2  1  0
  2  3  1  0
  2  4  1  0
  4  5  1  0
  5  6  2  0
  6  7  1  0
  7  8  1  0
  7  9  1  0
  9 10  1  0
 10 11  1  0
 11 12  1  0
 12 13  2  0
 12 14  1  0
 14 15  1  0
 15 16  1  0
 15 17  1  0
 17 18  1  0
 18 19  1  0
 19 20  1  0
 20 21  1  0
 21 22  1  0
 10 23  1  0
 23 24  1  0
  8  4  2  0
 22 17  1  0
 24  6  1  0
  1 25  1  0
  1 26  1  0
  1 27  1  0
  2 28  1  0
  3 29  1  0
  3 30  1  0
  3 31  1  0
  9 32  1  0
  9 33  1  0
 10 34  1  0
 11 35  1  0
 14 36  1  0
 14 37  1  0
 15 38  1  0
 16 39  1  0
 16 40  1  0
 16 41  1  0
 17 42  1  0
 18 43  1  0
 18 44  1  0
 19 45  1  0
 19 46  1  0
 20 47  1  0
 21 48  1  0
 21 49  1  0
 22 50  1  0
 22 51  1  0
 23 52  1  0
 23 53  1  0
 24 54  1  0
 24 55  1  0
M  END
>  <Energy>  (817) 
55.090260903495995

>  <compound_id>  (817) 
5782

>  <target_id>  (817) 
1

>  <reference_id>  (817) 
70

>  <inspiration_ids>  (817) 
[70, 9]

>  <energy_score>  (817) 
4.177717061222211

>  <distance_score>  (817) 
14.202356440871258

>  <path>  (817) 
/opt/xchem-fragalysis-2/maxwin/BulkDock/SCRATCH/511018/C5782-P70/C5782-P70.minimised.mol

>  <scratch_subdir>  (817) 
/opt/xchem-fragalysis-2/maxwin/BulkDock/SCRATCH/511018/C5782-P70

>  <fragmenstein_runtime>  (817) 
30.43380069732666

>  <fragmenstein_outcome>  (817) 
too moved

>  <fragmenstein_mode>  (817) 
expansion

>  <fragmenstein_error>  (817) 


$$$$
C5782-P9
     RDKit          3D

 55 57  0  0  0  0  0  0  0  0999 V2000
   -7.5234   -6.1252   28.3468 C   0  0  0  0  0  0  0  0  0  0  0  0
   -8.6345   -7.0003   27.7829 C   0  0  0  0  0  0  0  0  0  0  0  0
   -8.9837   -6.5802   26.3519 C   0  0  0  0  0  0  0  0  0  0  0  0
   -8.3357   -8.4878   27.8948 C   0  0  0  0  0  0  0  0  0  0  0  0
   -7.1318   -9.0035   28.3377 N   0  0  0  0  0  0  0  0  0  0  0  0
   -7.3626  -10.3042   28.4289 C   0  0  0  0  0  0  0  0  0  0  0  0
   -8.6379  -10.5772   28.0083 N   0  0  0  0  0  0  0  0  0  0  0  0
   -9.2751   -9.4282   27.6711 N   0  0  0  0  0  0  0  0  0  0  0  0
   -9.2890  -11.9172   28.0105 C   0  0  0  0  0  0  0  0  0  0  0  0
   -8.2480  -13.0966   28.0699 C   0  0  0  0  0  0  0  0  0  0  0  0
   -8.6747  -14.5972   28.0117 N   0  0  0  0  0  0  0  0  0  0  0  0
  -10.0068  -15.2252   27.7995 C   0  0  0  0  0  0  0  0  0  0  0  0
  -11.0969  -14.7287   27.7006 O   0  0  0  0  0  0  0  0  0  0  0  0
   -9.9121  -16.8820   27.5888 C   0  0  0  0  0  0  0  0  0  0  0  0
  -10.8061  -17.6766   26.4339 C   0  0  0  0  0  0  0  0  0  0  0  0
  -12.3059  -17.5304   26.6677 C   0  0  0  0  0  0  0  0  0  0  0  0
  -10.4459  -19.2333   26.1471 C   0  0  0  0  0  0  0  0  0  0  0  0
  -10.8302  -20.2783   27.1931 C   0  0  0  0  0  0  0  0  0  0  0  0
  -10.2700  -21.6794   26.8170 C   0  0  0  0  0  0  0  0  0  0  0  0
  -10.1656  -21.9806   25.3828 N   0  0  0  0  0  0  0  0  0  0  0  0
  -11.1942  -21.2741   24.6424 C   0  0  0  0  0  0  0  0  0  0  0  0
  -11.0428  -19.7573   24.8057 C   0  0  0  0  0  0  0  0  0  0  0  0
   -7.2167  -12.7378   29.1822 C   0  0  0  0  0  0  0  0  0  0  0  0
   -6.4621  -11.4028   28.8838 C   0  0  0  0  0  0  0  0  0  0  0  0
   -7.8148   -5.0711   28.3477 H   0  0  0  0  0  0  0  0  0  0  0  0
   -6.6322   -6.2710   27.7450 H   0  0  0  0  0  0  0  0  0  0  0  0
   -7.2835   -6.4032   29.3790 H   0  0  0  0  0  0  0  0  0  0  0  0
   -9.5245   -6.8182   28.4014 H   0  0  0  0  0  0  0  0  0  0  0  0
   -9.8939   -7.0932   26.0188 H   0  0  0  0  0  0  0  0  0  0  0  0
   -8.1944   -6.8642   25.6485 H   0  0  0  0  0  0  0  0  0  0  0  0
   -9.1801   -5.5058   26.2862 H   0  0  0  0  0  0  0  0  0  0  0  0
   -9.9113  -11.9661   27.1134 H   0  0  0  0  0  0  0  0  0  0  0  0
   -9.9381  -11.9317   28.8929 H   0  0  0  0  0  0  0  0  0  0  0  0
   -7.6282  -13.0344   27.1707 H   0  0  0  0  0  0  0  0  0  0  0  0
   -7.9783  -15.3252   28.1293 H   0  0  0  0  0  0  0  0  0  0  0  0
  -10.1803  -17.3114   28.5620 H   0  0  0  0  0  0  0  0  0  0  0  0
   -8.8590  -17.1218   27.4103 H   0  0  0  0  0  0  0  0  0  0  0  0
  -10.6281  -17.1276   25.5097 H   0  0  0  0  0  0  0  0  0  0  0  0
  -12.9130  -17.9625   25.8702 H   0  0  0  0  0  0  0  0  0  0  0  0
  -12.6003  -17.9986   27.6124 H   0  0  0  0  0  0  0  0  0  0  0  0
  -12.5887  -16.4755   26.7263 H   0  0  0  0  0  0  0  0  0  0  0  0
   -9.3543  -19.2971   26.0779 H   0  0  0  0  0  0  0  0  0  0  0  0
  -11.9224  -20.3406   27.2770 H   0  0  0  0  0  0  0  0  0  0  0  0
  -10.4495  -19.9903   28.1795 H   0  0  0  0  0  0  0  0  0  0  0  0
   -9.2707  -21.7889   27.2558 H   0  0  0  0  0  0  0  0  0  0  0  0
  -10.8941  -22.4426   27.2969 H   0  0  0  0  0  0  0  0  0  0  0  0
   -9.2518  -21.6719   25.0463 H   0  0  0  0  0  0  0  0  0  0  0  0
  -11.1390  -21.5375   23.5801 H   0  0  0  0  0  0  0  0  0  0  0  0
  -12.1854  -21.5964   24.9856 H   0  0  0  0  0  0  0  0  0  0  0  0
  -12.0436  -19.3531   24.6584 H   0  0  0  0  0  0  0  0  0  0  0  0
  -10.3937  -19.3893   24.0217 H   0  0  0  0  0  0  0  0  0  0  0  0
   -6.4810  -13.5439   29.2881 H   0  0  0  0  0  0  0  0  0  0  0  0
   -7.7410  -12.6616   30.1433 H   0  0  0  0  0  0  0  0  0  0  0  0
   -5.7182  -11.5854   28.0990 H   0  0  0  0  0  0  0  0  0  0  0  0
   -5.9180  -11.0903   29.7818 H   0  0  0  0  0  0  0  0  0  0  0  0
  1  2  1  0
  2  3  1  0
  2  4  1  0
  4  5  1  0
  5  6  2  0
  6  7  1  0
  7  8  1  0
  7  9  1  0
  9 10  1  0
 10 11  1  0
 11 12  1  0
 12 13  2  0
 12 14  1  0
 14 15  1  0
 15 16  1  0
 15 17  1  0
 17 18  1  0
 18 19  1  0
 19 20  1  0
 20 21  1  0
 21 22  1  0
 10 23  1  0
 23 24  1  0
  8  4  2  0
 22 17  1  0
 24  6  1  0
  1 25  1  0
  1 26  1  0
  1 27  1  0
  2 28  1  0
  3 29  1  0
  3 30  1  0
  3 31  1  0
  9 32  1  0
  9 33  1  0
 10 34  1  0
 11 35  1  0
 14 36  1  0
 14 37  1  0
 15 38  1  0
 16 39  1  0
 16 40  1  0
 16 41  1  0
 17 42  1  0
 18 43  1  0
 18 44  1  0
 19 45  1  0
 19 46  1  0
 20 47  1  0
 21 48  1  0
 21 49  1  0
 22 50  1  0
 22 51  1  0
 23 52  1  0
 23 53  1  0
 24 54  1  0
 24 55  1  0
M  END
>  <Energy>  (818) 
56.861215778306494

>  <compound_id>  (818) 
5782

>  <target_id>  (818) 
1

>  <reference_id>  (818) 
9

>  <inspiration_ids>  (818) 
[70, 9]

>  <energy_score>  (818) 
5.948671936027097

>  <distance_score>  (818) 
14.048986171863667

>  <path>  (818) 
/opt/xchem-fragalysis-2/maxwin/BulkDock/SCRATCH/511018/C5782-P9/C5782-P9.minimised.mol

>  <scratch_subdir>  (818) 
/opt/xchem-fragalysis-2/maxwin/BulkDock/SCRATCH/511018/C5782-P9

>  <fragmenstein_runtime>  (818) 
24.521848917007446

>  <fragmenstein_outcome>  (818) 
too moved

>  <fragmenstein_mode>  (818) 
expansion

>  <fragmenstein_error>  (818) 


$$$$
C5786-P70
     RDKit          3D

 54 56  0  0  0  0  0  0  0  0999 V2000
   -5.3339   -4.6384   21.0176 C   0  0  0  0  0  0  0  0  0  0  0  0
   -4.2063   -5.5766   21.3627 O   0  0  0  0  0  0  0  0  0  0  0  0
   -4.1586   -6.9693   21.8421 C   0  0  0  0  0  0  0  0  0  0  0  0
   -4.9610   -7.1372   22.7175 O   0  0  0  0  0  0  0  0  0  0  0  0
   -2.9511   -8.2165   21.2887 C   0  0  0  0  0  0  0  0  0  0  0  0
   -1.9541   -8.3810   22.4139 C   0  0  0  0  0  0  0  0  0  0  0  0
   -0.5093   -8.6307   22.0982 C   0  0  0  0  0  0  0  0  0  0  0  0
    0.5942   -7.8532   22.8807 C   0  0  0  0  0  0  0  0  0  0  0  0
    1.3914   -6.7947   22.1572 C   0  0  0  0  0  0  0  0  0  0  0  0
    1.7904   -7.3029   20.7991 C   0  0  0  0  0  0  0  0  0  0  0  0
    0.7520   -8.1188   19.9881 C   0  0  0  0  0  0  0  0  0  0  0  0
   -0.5118   -8.8380   20.6399 C   0  0  0  0  0  0  0  0  0  0  0  0
   -2.0096   -8.8997   20.1881 N   0  0  0  0  0  0  0  0  0  0  0  0
   -2.3675   -9.3641   18.7753 C   0  0  0  0  0  0  0  0  0  0  0  0
   -2.8251  -10.9020   18.1911 C   0  0  0  0  0  0  0  0  0  0  0  0
   -3.1728  -10.9928   16.5740 C   0  0  0  0  0  0  0  0  0  0  0  0
   -3.7695  -12.3085   15.8833 C   0  0  0  0  0  0  0  0  0  0  0  0
   -3.3568  -12.5902   14.4150 C   0  0  0  0  0  0  0  0  0  0  0  0
   -4.1747  -13.7363   13.7487 C   0  0  0  0  0  0  0  0  0  0  0  0
   -4.9080  -14.5681   14.6992 N   0  0  0  0  0  0  0  0  0  0  0  0
   -5.8718  -13.7640   15.4487 C   0  0  0  0  0  0  0  0  0  0  0  0
   -5.3272  -12.3709   15.8542 C   0  0  0  0  0  0  0  0  0  0  0  0
   -6.3069   -4.9813   21.3708 H   0  0  0  0  0  0  0  0  0  0  0  0
   -5.0663   -3.6443   21.3786 H   0  0  0  0  0  0  0  0  0  0  0  0
   -5.3759   -4.4627   19.9424 H   0  0  0  0  0  0  0  0  0  0  0  0
   -2.9438   -7.4953   20.5067 H   0  0  0  0  0  0  0  0  0  0  0  0
   -2.3822   -9.2714   22.8647 H   0  0  0  0  0  0  0  0  0  0  0  0
   -1.8905   -7.5823   23.1288 H   0  0  0  0  0  0  0  0  0  0  0  0
   -0.3110   -9.6390   22.4337 H   0  0  0  0  0  0  0  0  0  0  0  0
    0.2090   -7.4602   23.8293 H   0  0  0  0  0  0  0  0  0  0  0  0
    1.3596   -8.5887   23.1659 H   0  0  0  0  0  0  0  0  0  0  0  0
    2.2973   -6.5710   22.7365 H   0  0  0  0  0  0  0  0  0  0  0  0
    0.8897   -5.8318   22.0826 H   0  0  0  0  0  0  0  0  0  0  0  0
    2.6731   -7.9436   20.9467 H   0  0  0  0  0  0  0  0  0  0  0  0
    2.1572   -6.4711   20.1841 H   0  0  0  0  0  0  0  0  0  0  0  0
    1.4460   -8.8831   19.6295 H   0  0  0  0  0  0  0  0  0  0  0  0
    0.4755   -7.6191   19.0542 H   0  0  0  0  0  0  0  0  0  0  0  0
   -0.2843   -9.9059   20.6369 H   0  0  0  0  0  0  0  0  0  0  0  0
   -1.5382   -9.0613   18.1289 H   0  0  0  0  0  0  0  0  0  0  0  0
   -3.1395   -8.7023   18.4199 H   0  0  0  0  0  0  0  0  0  0  0  0
   -3.6851  -11.2352   18.7740 H   0  0  0  0  0  0  0  0  0  0  0  0
   -1.9986  -11.5896   18.3957 H   0  0  0  0  0  0  0  0  0  0  0  0
   -3.8402  -10.1555   16.3389 H   0  0  0  0  0  0  0  0  0  0  0  0
   -2.2202  -10.7727   16.0748 H   0  0  0  0  0  0  0  0  0  0  0  0
   -3.2972  -13.1423   16.3986 H   0  0  0  0  0  0  0  0  0  0  0  0
   -2.2903  -12.8482   14.3953 H   0  0  0  0  0  0  0  0  0  0  0  0
   -3.4694  -11.6779   13.8163 H   0  0  0  0  0  0  0  0  0  0  0  0
   -3.4865  -14.3674   13.1749 H   0  0  0  0  0  0  0  0  0  0  0  0
   -4.8725  -13.3051   13.0194 H   0  0  0  0  0  0  0  0  0  0  0  0
   -5.3950  -15.3174   14.2077 H   0  0  0  0  0  0  0  0  0  0  0  0
   -6.7858  -13.6257   14.8583 H   0  0  0  0  0  0  0  0  0  0  0  0
   -6.1645  -14.3252   16.3394 H   0  0  0  0  0  0  0  0  0  0  0  0
   -5.6810  -11.6344   15.1184 H   0  0  0  0  0  0  0  0  0  0  0  0
   -5.7742  -12.0539   16.8029 H   0  0  0  0  0  0  0  0  0  0  0  0
  1  2  1  0
  2  3  1  0
  3  4  2  0
  3  5  1  0
  5  6  1  0
  6  7  1  0
  7  8  1  0
  8  9  1  0
  9 10  1  0
 10 11  1  0
 11 12  1  0
 12 13  1  0
 13 14  1  0
 14 15  1  0
 15 16  1  0
 16 17  1  0
 17 18  1  0
 18 19  1  0
 19 20  1  0
 20 21  1  0
 21 22  1  0
 13  5  1  0
 22 17  1  0
 12  7  1  0
  1 23  1  0
  1 24  1  0
  1 25  1  0
  5 26  1  0
  6 27  1  0
  6 28  1  0
  7 29  1  0
  8 30  1  0
  8 31  1  0
  9 32  1  0
  9 33  1  0
 10 34  1  0
 10 35  1  0
 11 36  1  0
 11 37  1  0
 12 38  1  0
 14 39  1  0
 14 40  1  0
 15 41  1  0
 15 42  1  0
 16 43  1  0
 16 44  1  0
 17 45  1  0
 18 46  1  0
 18 47  1  0
 19 48  1  0
 19 49  1  0
 20 50  1  0
 21 51  1  0
 21 52  1  0
 22 53  1  0
 22 54  1  0
M  END
>  <Energy>  (819) 
309.23998648654629

>  <compound_id>  (819) 
5786

>  <target_id>  (819) 
1

>  <reference_id>  (819) 
70

>  <inspiration_ids>  (819) 
[70, 9]

>  <energy_score>  (819) 
207.91220568427246

>  <distance_score>  (819) 
13.390005589477843

>  <path>  (819) 
/opt/xchem-fragalysis-2/maxwin/BulkDock/SCRATCH/511018/C5786-P70/C5786-P70.minimised.mol

>  <scratch_subdir>  (819) 
/opt/xchem-fragalysis-2/maxwin/BulkDock/SCRATCH/511018/C5786-P70

>  <fragmenstein_runtime>  (819) 
21.94139289855957

>  <fragmenstein_outcome>  (819) 
too moved

>  <fragmenstein_mode>  (819) 
expansion

>  <fragmenstein_error>  (819) 


$$$$
C5786-P9
     RDKit          3D

 54 56  0  0  0  0  0  0  0  0999 V2000
   -5.1705   -3.1866   18.8601 C   0  0  0  0  0  0  0  0  0  0  0  0
   -4.7683   -4.2833   19.7084 O   0  0  0  0  0  0  0  0  0  0  0  0
   -4.8280   -4.0579   21.0552 C   0  0  0  0  0  0  0  0  0  0  0  0
   -5.6059   -3.2055   21.4583 O   0  0  0  0  0  0  0  0  0  0  0  0
   -3.5913   -5.0445   21.9749 C   0  0  0  0  0  0  0  0  0  0  0  0
   -1.9733   -4.8878   23.5160 C   0  0  0  0  0  0  0  0  0  0  0  0
   -1.9397   -5.1173   24.8209 C   0  0  0  0  0  0  0  0  0  0  0  0
   -2.9320   -3.3931   25.4374 C   0  0  0  0  0  0  0  0  0  0  0  0
   -3.0107   -2.5402   24.3441 C   0  0  0  0  0  0  0  0  0  0  0  0
   -3.6108   -3.6925   23.7786 C   0  0  0  0  0  0  0  0  0  0  0  0
   -3.5003   -5.8446   23.9341 C   0  0  0  0  0  0  0  0  0  0  0  0
   -2.3869   -6.4821   23.5471 C   0  0  0  0  0  0  0  0  0  0  0  0
   -3.8250   -6.9654   22.3642 N   0  0  0  0  0  0  0  0  0  0  0  0
   -3.4812   -8.0867   21.0033 C   0  0  0  0  0  0  0  0  0  0  0  0
   -3.4504   -9.7385   19.7461 C   0  0  0  0  0  0  0  0  0  0  0  0
   -4.0771  -11.3015   18.6182 C   0  0  0  0  0  0  0  0  0  0  0  0
   -5.6938  -12.3541   18.1608 C   0  0  0  0  0  0  0  0  0  0  0  0
   -7.2001  -12.0797   18.0750 C   0  0  0  0  0  0  0  0  0  0  0  0
   -8.1917  -13.2688   18.3248 C   0  0  0  0  0  0  0  0  0  0  0  0
   -8.2408  -14.2836   17.2800 N   0  0  0  0  0  0  0  0  0  0  0  0
   -6.9223  -14.7653   16.9400 C   0  0  0  0  0  0  0  0  0  0  0  0
   -5.8699  -13.6275   16.9052 C   0  0  0  0  0  0  0  0  0  0  0  0
   -6.0490   -2.6568   19.2367 H   0  0  0  0  0  0  0  0  0  0  0  0
   -5.3787   -3.5845   17.8636 H   0  0  0  0  0  0  0  0  0  0  0  0
   -4.3414   -2.4826   18.7585 H   0  0  0  0  0  0  0  0  0  0  0  0
   -4.5769   -5.6157   21.8514 H   0  0  0  0  0  0  0  0  0  0  0  0
   -1.4926   -3.9095   23.7389 H   0  0  0  0  0  0  0  0  0  0  0  0
   -0.7744   -5.0076   23.4208 H   0  0  0  0  0  0  0  0  0  0  0  0
   -0.9430   -5.3781   25.1247 H   0  0  0  0  0  0  0  0  0  0  0  0
   -2.3793   -2.7063   26.2010 H   0  0  0  0  0  0  0  0  0  0  0  0
   -3.6818   -3.0238   26.1949 H   0  0  0  0  0  0  0  0  0  0  0  0
   -3.5172   -1.7298   24.8427 H   0  0  0  0  0  0  0  0  0  0  0  0
   -2.3057   -2.2146   23.5906 H   0  0  0  0  0  0  0  0  0  0  0  0
   -3.7538   -3.3179   22.7374 H   0  0  0  0  0  0  0  0  0  0  0  0
   -4.5724   -3.2239   23.7884 H   0  0  0  0  0  0  0  0  0  0  0  0
   -2.6825   -6.5899   24.9651 H   0  0  0  0  0  0  0  0  0  0  0  0
   -4.4619   -6.3566   23.9457 H   0  0  0  0  0  0  0  0  0  0  0  0
   -1.6035   -7.1483   23.8533 H   0  0  0  0  0  0  0  0  0  0  0  0
   -3.4302   -8.7462   21.8984 H   0  0  0  0  0  0  0  0  0  0  0  0
   -2.7175   -7.5415   20.5459 H   0  0  0  0  0  0  0  0  0  0  0  0
   -3.7601  -10.3822   20.5797 H   0  0  0  0  0  0  0  0  0  0  0  0
   -2.4268   -9.6673   19.3556 H   0  0  0  0  0  0  0  0  0  0  0  0
   -3.3333  -12.0743   18.8248 H   0  0  0  0  0  0  0  0  0  0  0  0
   -3.7640  -10.8472   17.6656 H   0  0  0  0  0  0  0  0  0  0  0  0
   -5.7466  -12.8346   19.1071 H   0  0  0  0  0  0  0  0  0  0  0  0
   -7.5800  -11.2663   18.6634 H   0  0  0  0  0  0  0  0  0  0  0  0
   -7.2476  -11.8229   17.0395 H   0  0  0  0  0  0  0  0  0  0  0  0
   -7.9858  -13.7363   19.2891 H   0  0  0  0  0  0  0  0  0  0  0  0
   -9.2023  -12.8504   18.3983 H   0  0  0  0  0  0  0  0  0  0  0  0
   -8.8422  -15.0517   17.5703 H   0  0  0  0  0  0  0  0  0  0  0  0
   -6.6208  -15.6276   17.5332 H   0  0  0  0  0  0  0  0  0  0  0  0
   -6.9872  -15.1789   15.9241 H   0  0  0  0  0  0  0  0  0  0  0  0
   -4.9264  -14.0919   16.5958 H   0  0  0  0  0  0  0  0  0  0  0  0
   -6.3051  -13.0855   16.0631 H   0  0  0  0  0  0  0  0  0  0  0  0
  1  2  1  0
  2  3  1  0
  3  4  2  0
  3  5  1  0
  5  6  1  0
  6  7  1  0
  7  8  1  0
  8  9  1  0
  9 10  1  0
 10 11  1  0
 11 12  1  0
 12 13  1  0
 13 14  1  0
 14 15  1  0
 15 16  1  0
 16 17  1  0
 17 18  1  0
 18 19  1  0
 19 20  1  0
 20 21  1  0
 21 22  1  0
 13  5  1  0
 22 17  1  0
 12  7  1  0
  1 23  1  0
  1 24  1  0
  1 25  1  0
  5 26  1  0
  6 27  1  0
  6 28  1  0
  7 29  1  0
  8 30  1  0
  8 31  1  0
  9 32  1  0
  9 33  1  0
 10 34  1  0
 10 35  1  0
 11 36  1  0
 11 37  1  0
 12 38  1  0
 14 39  1  0
 14 40  1  0
 15 41  1  0
 15 42  1  0
 16 43  1  0
 16 44  1  0
 17 45  1  0
 18 46  1  0
 18 47  1  0
 19 48  1  0
 19 49  1  0
 20 50  1  0
 21 51  1  0
 21 52  1  0
 22 53  1  0
 22 54  1  0
M  END
>  <Energy>  (820) 
1792.4462106058716

>  <compound_id>  (820) 
5786

>  <target_id>  (820) 
1

>  <reference_id>  (820) 
9

>  <inspiration_ids>  (820) 
[70, 9]

>  <energy_score>  (820) 
1691.1184298035912

>  <distance_score>  (820) 
11.563409639672397

>  <path>  (820) 
/opt/xchem-fragalysis-2/maxwin/BulkDock/SCRATCH/511018/C5786-P9/C5786-P9.minimised.mol

>  <scratch_subdir>  (820) 
/opt/xchem-fragalysis-2/maxwin/BulkDock/SCRATCH/511018/C5786-P9

>  <fragmenstein_runtime>  (820) 
20.279609441757202

>  <fragmenstein_outcome>  (820) 
too moved

>  <fragmenstein_mode>  (820) 
expansion

>  <fragmenstein_error>  (820) 


$$$$
C5787-P70
     RDKit          3D

 54 55  0  0  0  0  0  0  0  0999 V2000
   -1.4049   -1.1393   28.9504 C   0  0  0  0  0  0  0  0  0  0  0  0
   -2.3064   -2.2147   28.2795 C   0  0  0  0  0  0  0  0  0  0  0  0
   -2.6154   -3.2196   29.4395 C   0  0  0  0  0  0  0  0  0  0  0  0
   -3.4106   -1.6908   27.3451 N   0  0  0  0  0  0  0  0  0  0  0  0
   -2.9649   -0.1864   26.7568 C   0  0  0  0  0  0  0  0  0  0  0  0
   -4.0266    0.9765   26.1011 C   0  0  0  0  0  0  0  0  0  0  0  0
   -5.5776    0.4413   25.2806 C   0  0  0  0  0  0  0  0  0  0  0  0
   -6.2930   -1.4498   25.6173 C   0  0  0  0  0  0  0  0  0  0  0  0
   -5.0336   -2.5015   26.8982 C   0  0  0  0  0  0  0  0  0  0  0  0
   -6.4242   -3.1461   28.1829 C   0  0  0  0  0  0  0  0  0  0  0  0
   -7.6423   -4.1495   27.9624 N   0  0  0  0  0  0  0  0  0  0  0  0
   -7.7632   -5.6595   28.2485 C   0  0  0  0  0  0  0  0  0  0  0  0
   -7.0024   -6.3911   28.7711 O   0  0  0  0  0  0  0  0  0  0  0  0
   -9.1054   -5.9528   27.5694 N   0  0  0  0  0  0  0  0  0  0  0  0
   -9.7487   -7.1759   27.3019 N   0  0  0  0  0  0  0  0  0  0  0  0
   -9.3081   -8.3450   26.5271 C   0  0  0  0  0  0  0  0  0  0  0  0
   -8.2580   -8.5798   25.9956 O   0  0  0  0  0  0  0  0  0  0  0  0
  -10.4775   -9.4221   26.3597 C   0  0  0  0  0  0  0  0  0  0  0  0
  -11.2244   -9.2997   25.0010 C   0  0  0  0  0  0  0  0  0  0  0  0
  -11.3485  -10.6019   24.1854 C   0  0  0  0  0  0  0  0  0  0  0  0
  -11.8054  -11.7329   24.9753 N   0  0  0  0  0  0  0  0  0  0  0  0
  -11.0281  -11.9350   26.1955 C   0  0  0  0  0  0  0  0  0  0  0  0
   -9.9514  -10.8714   26.4893 C   0  0  0  0  0  0  0  0  0  0  0  0
   -1.9898   -0.4471   29.5654 H   0  0  0  0  0  0  0  0  0  0  0  0
   -0.8198   -0.5773   28.2149 H   0  0  0  0  0  0  0  0  0  0  0  0
   -0.6641   -1.6128   29.6072 H   0  0  0  0  0  0  0  0  0  0  0  0
   -1.5760   -2.6957   27.6231 H   0  0  0  0  0  0  0  0  0  0  0  0
   -3.5624   -3.7505   29.3238 H   0  0  0  0  0  0  0  0  0  0  0  0
   -1.8187   -3.9713   29.4986 H   0  0  0  0  0  0  0  0  0  0  0  0
   -2.6508   -2.7276   30.4198 H   0  0  0  0  0  0  0  0  0  0  0  0
   -2.5791    0.3699   27.6143 H   0  0  0  0  0  0  0  0  0  0  0  0
   -2.1065   -0.2717   26.1083 H   0  0  0  0  0  0  0  0  0  0  0  0
   -4.3582    1.6396   26.9120 H   0  0  0  0  0  0  0  0  0  0  0  0
   -3.4280    1.6794   25.5119 H   0  0  0  0  0  0  0  0  0  0  0  0
   -6.1821    1.3222   25.7421 H   0  0  0  0  0  0  0  0  0  0  0  0
   -6.0920    0.9757   24.5328 H   0  0  0  0  0  0  0  0  0  0  0  0
   -6.5739   -2.0119   24.7153 H   0  0  0  0  0  0  0  0  0  0  0  0
   -7.3325   -1.3070   26.0287 H   0  0  0  0  0  0  0  0  0  0  0  0
   -4.6068   -3.4030   26.7373 H   0  0  0  0  0  0  0  0  0  0  0  0
   -7.1194   -2.3232   28.4163 H   0  0  0  0  0  0  0  0  0  0  0  0
   -5.8560   -3.6615   28.9698 H   0  0  0  0  0  0  0  0  0  0  0  0
   -8.5060   -3.8126   27.5753 H   0  0  0  0  0  0  0  0  0  0  0  0
   -9.4605   -5.1100   27.1523 H   0  0  0  0  0  0  0  0  0  0  0  0
  -10.7314   -7.2804   27.5320 H   0  0  0  0  0  0  0  0  0  0  0  0
  -11.2008   -9.2622   27.1696 H   0  0  0  0  0  0  0  0  0  0  0  0
  -12.2348   -8.9228   25.2091 H   0  0  0  0  0  0  0  0  0  0  0  0
  -10.7458   -8.5374   24.3740 H   0  0  0  0  0  0  0  0  0  0  0  0
  -10.3898  -10.8194   23.7144 H   0  0  0  0  0  0  0  0  0  0  0  0
  -12.0632  -10.4360   23.3719 H   0  0  0  0  0  0  0  0  0  0  0  0
  -11.8057  -12.5840   24.4152 H   0  0  0  0  0  0  0  0  0  0  0  0
  -11.7376  -11.9434   27.0317 H   0  0  0  0  0  0  0  0  0  0  0  0
  -10.5714  -12.9296   26.1883 H   0  0  0  0  0  0  0  0  0  0  0  0
   -9.0915  -10.9971   25.8281 H   0  0  0  0  0  0  0  0  0  0  0  0
   -9.5662  -11.0227   27.5055 H   0  0  0  0  0  0  0  0  0  0  0  0
  1  2  1  0
  2  3  1  0
  2  4  1  0
  4  5  1  0
  5  6  1  0
  6  7  1  0
  7  8  1  0
  8  9  1  0
  9 10  1  0
 10 11  1  0
 11 12  1  0
 12 13  2  0
 12 14  1  0
 14 15  1  0
 15 16  1  0
 16 17  2  0
 16 18  1  0
 18 19  1  0
 19 20  1  0
 20 21  1  0
 21 22  1  0
 22 23  1  0
  9  4  1  0
 23 18  1  0
  1 24  1  0
  1 25  1  0
  1 26  1  0
  2 27  1  0
  3 28  1  0
  3 29  1  0
  3 30  1  0
  5 31  1  0
  5 32  1  0
  6 33  1  0
  6 34  1  0
  7 35  1  0
  7 36  1  0
  8 37  1  0
  8 38  1  0
  9 39  1  0
 10 40  1  0
 10 41  1  0
 11 42  1  0
 14 43  1  0
 15 44  1  0
 18 45  1  0
 19 46  1  0
 19 47  1  0
 20 48  1  0
 20 49  1  0
 21 50  1  0
 22 51  1  0
 22 52  1  0
 23 53  1  0
 23 54  1  0
M  END
>  <Energy>  (821) 
409.14021952984058

>  <compound_id>  (821) 
5787

>  <target_id>  (821) 
1

>  <reference_id>  (821) 
70

>  <inspiration_ids>  (821) 
[70, 9]

>  <energy_score>  (821) 
353.95448937981763

>  <distance_score>  (821) 
14.480150369945697

>  <path>  (821) 
/opt/xchem-fragalysis-2/maxwin/BulkDock/SCRATCH/511018/C5787-P70/C5787-P70.minimised.mol

>  <scratch_subdir>  (821) 
/opt/xchem-fragalysis-2/maxwin/BulkDock/SCRATCH/511018/C5787-P70

>  <fragmenstein_runtime>  (821) 
42.39911508560181

>  <fragmenstein_outcome>  (821) 
too moved

>  <fragmenstein_mode>  (821) 
expansion

>  <fragmenstein_error>  (821) 


$$$$
C5787-P9
     RDKit          3D

 54 55  0  0  0  0  0  0  0  0999 V2000
   -3.5749  -10.0473   30.5917 C   0  0  0  0  0  0  0  0  0  0  0  0
   -4.2201   -9.6519   29.2582 C   0  0  0  0  0  0  0  0  0  0  0  0
   -5.0755   -8.3881   29.4432 C   0  0  0  0  0  0  0  0  0  0  0  0
   -3.2733   -9.5120   28.1197 N   0  0  0  0  0  0  0  0  0  0  0  0
   -2.2652   -8.4571   28.3519 C   0  0  0  0  0  0  0  0  0  0  0  0
   -1.4747   -8.1570   27.0869 C   0  0  0  0  0  0  0  0  0  0  0  0
   -0.7839   -9.4226   26.6160 C   0  0  0  0  0  0  0  0  0  0  0  0
   -1.7901  -10.5640   26.4238 C   0  0  0  0  0  0  0  0  0  0  0  0
   -2.6618  -10.8217   27.6617 C   0  0  0  0  0  0  0  0  0  0  0  0
   -3.7567  -11.9582   27.4329 C   0  0  0  0  0  0  0  0  0  0  0  0
   -3.6656  -13.1822   26.6171 N   0  0  0  0  0  0  0  0  0  0  0  0
   -4.7664  -14.0420   25.9796 C   0  0  0  0  0  0  0  0  0  0  0  0
   -5.9184  -13.8527   25.9463 O   0  0  0  0  0  0  0  0  0  0  0  0
   -3.9483  -15.1461   25.3190 N   0  0  0  0  0  0  0  0  0  0  0  0
   -4.3329  -16.1568   24.4343 N   0  0  0  0  0  0  0  0  0  0  0  0
   -3.8163  -17.5120   24.2428 C   0  0  0  0  0  0  0  0  0  0  0  0
   -2.8792  -18.0696   24.7444 O   0  0  0  0  0  0  0  0  0  0  0  0
   -4.6425  -18.2445   23.0893 C   0  0  0  0  0  0  0  0  0  0  0  0
   -6.0706  -18.6843   23.4711 C   0  0  0  0  0  0  0  0  0  0  0  0
   -6.8397  -19.2107   22.2472 C   0  0  0  0  0  0  0  0  0  0  0  0
   -6.1705  -20.3482   21.6096 N   0  0  0  0  0  0  0  0  0  0  0  0
   -4.7745  -20.0395   21.2830 C   0  0  0  0  0  0  0  0  0  0  0  0
   -3.9681  -19.4919   22.4778 C   0  0  0  0  0  0  0  0  0  0  0  0
   -4.3472  -10.2065   31.3528 H   0  0  0  0  0  0  0  0  0  0  0  0
   -2.9024   -9.2703   30.9691 H   0  0  0  0  0  0  0  0  0  0  0  0
   -3.0099  -10.9804   30.5069 H   0  0  0  0  0  0  0  0  0  0  0  0
   -4.9531  -10.4257   29.0095 H   0  0  0  0  0  0  0  0  0  0  0  0
   -5.9176   -8.5980   30.1128 H   0  0  0  0  0  0  0  0  0  0  0  0
   -5.4944   -8.0534   28.4877 H   0  0  0  0  0  0  0  0  0  0  0  0
   -4.5118   -7.5612   29.8859 H   0  0  0  0  0  0  0  0  0  0  0  0
   -2.7363   -7.5212   28.6611 H   0  0  0  0  0  0  0  0  0  0  0  0
   -1.5743   -8.7513   29.1515 H   0  0  0  0  0  0  0  0  0  0  0  0
   -2.1404   -7.7789   26.3020 H   0  0  0  0  0  0  0  0  0  0  0  0
   -0.7310   -7.3773   27.2855 H   0  0  0  0  0  0  0  0  0  0  0  0
   -0.0334   -9.7283   27.3559 H   0  0  0  0  0  0  0  0  0  0  0  0
   -0.2425   -9.2344   25.6844 H   0  0  0  0  0  0  0  0  0  0  0  0
   -1.2380  -11.4781   26.1733 H   0  0  0  0  0  0  0  0  0  0  0  0
   -2.4272  -10.3476   25.5681 H   0  0  0  0  0  0  0  0  0  0  0  0
   -1.9919  -11.1890   28.4508 H   0  0  0  0  0  0  0  0  0  0  0  0
   -4.0448  -12.3345   28.4226 H   0  0  0  0  0  0  0  0  0  0  0  0
   -4.6535  -11.4700   27.0348 H   0  0  0  0  0  0  0  0  0  0  0  0
   -2.7864  -13.6630   26.5450 H   0  0  0  0  0  0  0  0  0  0  0  0
   -2.9702  -14.9760   25.4781 H   0  0  0  0  0  0  0  0  0  0  0  0
   -5.2059  -16.0500   23.8994 H   0  0  0  0  0  0  0  0  0  0  0  0
   -4.6856  -17.5171   22.2693 H   0  0  0  0  0  0  0  0  0  0  0  0
   -6.0164  -19.4684   24.2385 H   0  0  0  0  0  0  0  0  0  0  0  0
   -6.6302  -17.8660   23.9342 H   0  0  0  0  0  0  0  0  0  0  0  0
   -6.9739  -18.4028   21.5175 H   0  0  0  0  0  0  0  0  0  0  0  0
   -7.8399  -19.5265   22.5629 H   0  0  0  0  0  0  0  0  0  0  0  0
   -6.6609  -20.5576   20.7423 H   0  0  0  0  0  0  0  0  0  0  0  0
   -4.7457  -19.3110   20.4629 H   0  0  0  0  0  0  0  0  0  0  0  0
   -4.2911  -20.9510   20.9151 H   0  0  0  0  0  0  0  0  0  0  0  0
   -3.8583  -20.2711   23.2429 H   0  0  0  0  0  0  0  0  0  0  0  0
   -2.9549  -19.2371   22.1445 H   0  0  0  0  0  0  0  0  0  0  0  0
  1  2  1  0
  2  3  1  0
  2  4  1  0
  4  5  1  0
  5  6  1  0
  6  7  1  0
  7  8  1  0
  8  9  1  0
  9 10  1  0
 10 11  1  0
 11 12  1  0
 12 13  2  0
 12 14  1  0
 14 15  1  0
 15 16  1  0
 16 17  2  0
 16 18  1  0
 18 19  1  0
 19 20  1  0
 20 21  1  0
 21 22  1  0
 22 23  1  0
  9  4  1  0
 23 18  1  0
  1 24  1  0
  1 25  1  0
  1 26  1  0
  2 27  1  0
  3 28  1  0
  3 29  1  0
  3 30  1  0
  5 31  1  0
  5 32  1  0
  6 33  1  0
  6 34  1  0
  7 35  1  0
  7 36  1  0
  8 37  1  0
  8 38  1  0
  9 39  1  0
 10 40  1  0
 10 41  1  0
 11 42  1  0
 14 43  1  0
 15 44  1  0
 18 45  1  0
 19 46  1  0
 19 47  1  0
 20 48  1  0
 20 49  1  0
 21 50  1  0
 22 51  1  0
 22 52  1  0
 23 53  1  0
 23 54  1  0
M  END
>  <Energy>  (822) 
33.291417679424711

>  <compound_id>  (822) 
5787

>  <target_id>  (822) 
1

>  <reference_id>  (822) 
9

>  <inspiration_ids>  (822) 
[70, 9]

>  <energy_score>  (822) 
-21.89431247059582

>  <distance_score>  (822) 
13.128667785104655

>  <path>  (822) 
/opt/xchem-fragalysis-2/maxwin/BulkDock/SCRATCH/511018/C5787-P9/C5787-P9.minimised.mol

>  <scratch_subdir>  (822) 
/opt/xchem-fragalysis-2/maxwin/BulkDock/SCRATCH/511018/C5787-P9

>  <fragmenstein_runtime>  (822) 
30.74476671218872

>  <fragmenstein_outcome>  (822) 
too moved

>  <fragmenstein_mode>  (822) 
expansion

>  <fragmenstein_error>  (822) 


$$$$
C5788-P70
     RDKit          3D

 41 42  0  0  0  0  0  0  0  0999 V2000
  -12.7048  -10.8203   24.0184 C   0  0  0  0  0  0  0  0  0  0  0  0
  -13.3042  -10.7175   25.4118 C   0  0  0  0  0  0  0  0  0  0  0  0
  -14.1502   -9.4301   25.6304 C   0  0  0  0  0  0  0  0  0  0  0  0
  -13.4032   -8.1520   25.9913 C   0  0  0  0  0  0  0  0  0  0  0  0
  -13.0314   -7.6563   27.2348 C   0  0  0  0  0  0  0  0  0  0  0  0
  -12.3588   -6.4323   27.2451 N   0  0  0  0  0  0  0  0  0  0  0  0
  -12.2097   -6.0475   26.0032 C   0  0  0  0  0  0  0  0  0  0  0  0
  -11.1332   -5.3424   25.5876 N   0  0  0  0  0  0  0  0  0  0  0  0
  -10.5997   -5.1070   24.2265 C   0  0  0  0  0  0  0  0  0  0  0  0
  -11.0342   -5.4098   23.1851 O   0  0  0  0  0  0  0  0  0  0  0  0
   -9.3051   -4.4710   24.5713 N   0  0  0  0  0  0  0  0  0  0  0  0
   -8.1977   -4.1440   23.7593 C   0  0  0  0  0  0  0  0  0  0  0  0
   -7.1580   -3.0007   23.9041 C   0  0  0  0  0  0  0  0  0  0  0  0
   -6.4298   -1.8849   25.2644 C   0  0  0  0  0  0  0  0  0  0  0  0
   -4.4335   -2.0959   25.6406 C   0  0  0  0  0  0  0  0  0  0  0  0
   -3.5717   -2.6588   24.0926 N   0  0  0  0  0  0  0  0  0  0  0  0
   -4.3830   -3.5018   23.0082 C   0  0  0  0  0  0  0  0  0  0  0  0
   -6.0743   -3.4886   22.7626 C   0  0  0  0  0  0  0  0  0  0  0  0
  -13.0602   -6.9400   24.8219 S   0  0  0  0  0  0  0  0  0  0  0  0
  -12.1445   -9.9161   23.7683 H   0  0  0  0  0  0  0  0  0  0  0  0
  -13.4936  -10.9219   23.2703 H   0  0  0  0  0  0  0  0  0  0  0  0
  -12.0052  -11.6544   23.9732 H   0  0  0  0  0  0  0  0  0  0  0  0
  -13.9471  -11.5898   25.5766 H   0  0  0  0  0  0  0  0  0  0  0  0
  -12.5031  -10.7585   26.1587 H   0  0  0  0  0  0  0  0  0  0  0  0
  -14.7871   -9.2577   24.7536 H   0  0  0  0  0  0  0  0  0  0  0  0
  -14.8385   -9.6324   26.4627 H   0  0  0  0  0  0  0  0  0  0  0  0
  -13.2095   -8.1587   28.1784 H   0  0  0  0  0  0  0  0  0  0  0  0
  -10.4716   -5.0243   26.2606 H   0  0  0  0  0  0  0  0  0  0  0  0
   -9.2844   -4.2742   25.5528 H   0  0  0  0  0  0  0  0  0  0  0  0
   -8.6305   -4.0447   22.7495 H   0  0  0  0  0  0  0  0  0  0  0  0
   -7.6884   -5.1137   23.6916 H   0  0  0  0  0  0  0  0  0  0  0  0
   -8.0106   -2.3172   23.6858 H   0  0  0  0  0  0  0  0  0  0  0  0
   -6.7214   -0.8429   25.0856 H   0  0  0  0  0  0  0  0  0  0  0  0
   -7.1872   -1.9226   26.0976 H   0  0  0  0  0  0  0  0  0  0  0  0
   -4.2459   -2.6648   26.5623 H   0  0  0  0  0  0  0  0  0  0  0  0
   -3.7137   -1.2546   25.6096 H   0  0  0  0  0  0  0  0  0  0  0  0
   -2.8862   -3.3174   24.4610 H   0  0  0  0  0  0  0  0  0  0  0  0
   -3.9985   -4.5395   23.0074 H   0  0  0  0  0  0  0  0  0  0  0  0
   -3.9214   -3.2429   22.0805 H   0  0  0  0  0  0  0  0  0  0  0  0
   -6.2596   -4.5427   22.4830 H   0  0  0  0  0  0  0  0  0  0  0  0
   -6.4303   -3.0933   21.8108 H   0  0  0  0  0  0  0  0  0  0  0  0
  1  2  1  0
  2  3  1  0
  3  4  1  0
  4  5  2  0
  5  6  1  0
  6  7  2  0
  7  8  1  0
  8  9  1  0
  9 10  2  0
  9 11  1  0
 11 12  1  0
 12 13  1  0
 13 14  1  0
 14 15  1  0
 15 16  1  0
 16 17  1  0
 17 18  1  0
  7 19  1  0
 19  4  1  0
 18 13  1  0
  1 20  1  0
  1 21  1  0
  1 22  1  0
  2 23  1  0
  2 24  1  0
  3 25  1  0
  3 26  1  0
  5 27  1  0
  8 28  1  0
 11 29  1  0
 12 30  1  0
 12 31  1  0
 13 32  1  0
 14 33  1  0
 14 34  1  0
 15 35  1  0
 15 36  1  0
 16 37  1  0
 17 38  1  0
 17 39  1  0
 18 40  1  0
 18 41  1  0
M  END
>  <Energy>  (823) 
177.12697152148436

>  <compound_id>  (823) 
5788

>  <target_id>  (823) 
1

>  <reference_id>  (823) 
70

>  <inspiration_ids>  (823) 
[70, 9]

>  <energy_score>  (823) 
190.05355315478334

>  <distance_score>  (823) 
13.131090954299596

>  <path>  (823) 
/opt/xchem-fragalysis-2/maxwin/BulkDock/SCRATCH/511018/C5788-P70/C5788-P70.minimised.mol

>  <scratch_subdir>  (823) 
/opt/xchem-fragalysis-2/maxwin/BulkDock/SCRATCH/511018/C5788-P70

>  <fragmenstein_runtime>  (823) 
17.6552894115448

>  <fragmenstein_outcome>  (823) 
too moved

>  <fragmenstein_mode>  (823) 
expansion

>  <fragmenstein_error>  (823) 


$$$$
C5788-P9
     RDKit          3D

 41 42  0  0  0  0  0  0  0  0999 V2000
  -11.3836  -18.0156   26.8427 C   0  0  0  0  0  0  0  0  0  0  0  0
  -10.6944  -17.1519   27.9239 C   0  0  0  0  0  0  0  0  0  0  0  0
  -10.4707  -15.6937   27.4643 C   0  0  0  0  0  0  0  0  0  0  0  0
   -9.8950  -14.6244   28.4069 C   0  0  0  0  0  0  0  0  0  0  0  0
   -8.7613  -14.6318   29.2038 C   0  0  0  0  0  0  0  0  0  0  0  0
   -8.4262  -13.4284   29.8262 N   0  0  0  0  0  0  0  0  0  0  0  0
   -9.3337  -12.5310   29.5514 C   0  0  0  0  0  0  0  0  0  0  0  0
   -9.3683  -11.2363   29.9725 N   0  0  0  0  0  0  0  0  0  0  0  0
   -8.4145  -10.4633   30.8266 C   0  0  0  0  0  0  0  0  0  0  0  0
   -7.4539  -10.8173   31.3957 O   0  0  0  0  0  0  0  0  0  0  0  0
   -9.0172   -9.0950   30.7099 N   0  0  0  0  0  0  0  0  0  0  0  0
   -8.6456   -7.8398   31.3399 C   0  0  0  0  0  0  0  0  0  0  0  0
   -8.1689   -6.7490   30.3592 C   0  0  0  0  0  0  0  0  0  0  0  0
   -7.4809   -5.5974   31.1194 C   0  0  0  0  0  0  0  0  0  0  0  0
   -7.1471   -4.4237   30.2036 C   0  0  0  0  0  0  0  0  0  0  0  0
   -8.3265   -3.9432   29.4926 N   0  0  0  0  0  0  0  0  0  0  0  0
   -8.9381   -5.0012   28.6893 C   0  0  0  0  0  0  0  0  0  0  0  0
   -9.3505   -6.1955   29.5465 C   0  0  0  0  0  0  0  0  0  0  0  0
  -10.5705  -13.0104   28.4833 S   0  0  0  0  0  0  0  0  0  0  0  0
  -11.4000  -19.0644   27.1530 H   0  0  0  0  0  0  0  0  0  0  0  0
  -10.8734  -17.9384   25.8812 H   0  0  0  0  0  0  0  0  0  0  0  0
  -12.4172  -17.6839   26.7004 H   0  0  0  0  0  0  0  0  0  0  0  0
   -9.7291  -17.6003   28.1857 H   0  0  0  0  0  0  0  0  0  0  0  0
  -11.3057  -17.1599   28.8337 H   0  0  0  0  0  0  0  0  0  0  0  0
   -9.7568  -15.7681   26.6363 H   0  0  0  0  0  0  0  0  0  0  0  0
  -11.4264  -15.3275   27.0697 H   0  0  0  0  0  0  0  0  0  0  0  0
   -8.1052  -15.4824   29.3410 H   0  0  0  0  0  0  0  0  0  0  0  0
  -10.1271  -10.6456   29.7060 H   0  0  0  0  0  0  0  0  0  0  0  0
   -9.7961   -9.1279   30.0797 H   0  0  0  0  0  0  0  0  0  0  0  0
   -7.8455   -8.0717   32.0518 H   0  0  0  0  0  0  0  0  0  0  0  0
   -9.5134   -7.4992   31.9148 H   0  0  0  0  0  0  0  0  0  0  0  0
   -7.4405   -7.1874   29.6634 H   0  0  0  0  0  0  0  0  0  0  0  0
   -6.5639   -5.9640   31.5953 H   0  0  0  0  0  0  0  0  0  0  0  0
   -8.1373   -5.2480   31.9275 H   0  0  0  0  0  0  0  0  0  0  0  0
   -6.3920   -4.7154   29.4741 H   0  0  0  0  0  0  0  0  0  0  0  0
   -6.7313   -3.6129   30.8097 H   0  0  0  0  0  0  0  0  0  0  0  0
   -8.0667   -3.1681   28.8822 H   0  0  0  0  0  0  0  0  0  0  0  0
   -8.2488   -5.3310   27.9051 H   0  0  0  0  0  0  0  0  0  0  0  0
   -9.8237   -4.5969   28.1872 H   0  0  0  0  0  0  0  0  0  0  0  0
  -10.1583   -5.8883   30.2239 H   0  0  0  0  0  0  0  0  0  0  0  0
   -9.7612   -6.9789   28.8987 H   0  0  0  0  0  0  0  0  0  0  0  0
  1  2  1  0
  2  3  1  0
  3  4  1  0
  4  5  2  0
  5  6  1  0
  6  7  2  0
  7  8  1  0
  8  9  1  0
  9 10  2  0
  9 11  1  0
 11 12  1  0
 12 13  1  0
 13 14  1  0
 14 15  1  0
 15 16  1  0
 16 17  1  0
 17 18  1  0
  7 19  1  0
 19  4  1  0
 18 13  1  0
  1 20  1  0
  1 21  1  0
  1 22  1  0
  2 23  1  0
  2 24  1  0
  3 25  1  0
  3 26  1  0
  5 27  1  0
  8 28  1  0
 11 29  1  0
 12 30  1  0
 12 31  1  0
 13 32  1  0
 14 33  1  0
 14 34  1  0
 15 35  1  0
 15 36  1  0
 16 37  1  0
 17 38  1  0
 17 39  1  0
 18 40  1  0
 18 41  1  0
M  END
>  <Energy>  (824) 
-61.782007182370549

>  <compound_id>  (824) 
5788

>  <target_id>  (824) 
1

>  <reference_id>  (824) 
9

>  <inspiration_ids>  (824) 
[70, 9]

>  <energy_score>  (824) 
-48.85542554907312

>  <distance_score>  (824) 
14.46460846001094

>  <path>  (824) 
/opt/xchem-fragalysis-2/maxwin/BulkDock/SCRATCH/511018/C5788-P9/C5788-P9.minimised.mol

>  <scratch_subdir>  (824) 
/opt/xchem-fragalysis-2/maxwin/BulkDock/SCRATCH/511018/C5788-P9

>  <fragmenstein_runtime>  (824) 
20.602849006652832

>  <fragmenstein_outcome>  (824) 
too moved

>  <fragmenstein_mode>  (824) 
expansion

>  <fragmenstein_error>  (824) 


$$$$
C5798-P70
     RDKit          3D

 48 49  0  0  0  0  0  0  0  0999 V2000
   -9.3522   -1.7468   22.7581 C   0  0  0  0  0  0  0  0  0  0  0  0
   -8.9758   -3.1440   22.2592 C   0  0  0  0  0  0  0  0  0  0  0  0
   -8.0596   -3.8860   23.2237 C   0  0  0  0  0  0  0  0  0  0  0  0
   -8.5180   -3.2168   20.8249 C   0  0  0  0  0  0  0  0  0  0  0  0
   -9.1538   -2.5876   19.8278 N   0  0  0  0  0  0  0  0  0  0  0  0
   -8.8561   -3.3769   18.6972 O   0  0  0  0  0  0  0  0  0  0  0  0
   -7.9592   -4.3294   19.1015 C   0  0  0  0  0  0  0  0  0  0  0  0
   -7.8375   -5.6661   18.3552 C   0  0  0  0  0  0  0  0  0  0  0  0
   -7.0160   -6.6525   17.1066 C   0  0  0  0  0  0  0  0  0  0  0  0
   -7.4768   -8.2959   17.3523 N   0  0  0  0  0  0  0  0  0  0  0  0
   -6.7693   -9.7716   16.7672 C   0  0  0  0  0  0  0  0  0  0  0  0
   -5.8613   -9.9020   15.9993 O   0  0  0  0  0  0  0  0  0  0  0  0
   -7.3460  -11.4793   17.4959 C   0  0  0  0  0  0  0  0  0  0  0  0
   -7.9406  -12.8868   17.0278 O   0  0  0  0  0  0  0  0  0  0  0  0
   -7.1279  -14.1209   16.1242 C   0  0  0  0  0  0  0  0  0  0  0  0
   -7.0988  -15.8757   16.0403 C   0  0  0  0  0  0  0  0  0  0  0  0
   -7.8778  -16.8745   17.0050 C   0  0  0  0  0  0  0  0  0  0  0  0
   -9.3391  -16.9758   16.7438 C   0  0  0  0  0  0  0  0  0  0  0  0
   -9.5757  -17.0456   15.3252 N   0  0  0  0  0  0  0  0  0  0  0  0
   -8.7870  -16.2794   14.3569 C   0  0  0  0  0  0  0  0  0  0  0  0
   -7.3295  -16.4051   14.6376 C   0  0  0  0  0  0  0  0  0  0  0  0
   -7.6508   -4.1834   20.3875 N   0  0  0  0  0  0  0  0  0  0  0  0
   -8.8846   -0.9464   22.1852 H   0  0  0  0  0  0  0  0  0  0  0  0
   -9.1452   -1.6090   23.8241 H   0  0  0  0  0  0  0  0  0  0  0  0
  -10.4317   -1.5968   22.6279 H   0  0  0  0  0  0  0  0  0  0  0  0
   -9.9151   -3.7190   22.2783 H   0  0  0  0  0  0  0  0  0  0  0  0
   -8.4620   -3.8104   24.2363 H   0  0  0  0  0  0  0  0  0  0  0  0
   -8.0204   -4.9532   22.9731 H   0  0  0  0  0  0  0  0  0  0  0  0
   -7.0345   -3.5220   23.1877 H   0  0  0  0  0  0  0  0  0  0  0  0
   -7.0215   -5.7538   19.0194 H   0  0  0  0  0  0  0  0  0  0  0  0
   -8.6476   -6.2797   18.7779 H   0  0  0  0  0  0  0  0  0  0  0  0
   -7.2901   -6.2994   16.1117 H   0  0  0  0  0  0  0  0  0  0  0  0
   -5.9523   -6.6515   17.1625 H   0  0  0  0  0  0  0  0  0  0  0  0
   -8.1727   -8.5064   18.0554 H   0  0  0  0  0  0  0  0  0  0  0  0
   -7.8592  -11.2902   18.4172 H   0  0  0  0  0  0  0  0  0  0  0  0
   -6.3671  -11.8507   17.8327 H   0  0  0  0  0  0  0  0  0  0  0  0
   -7.4458  -14.0421   15.1097 H   0  0  0  0  0  0  0  0  0  0  0  0
   -6.1886  -13.6890   16.3404 H   0  0  0  0  0  0  0  0  0  0  0  0
   -6.0207  -16.1074   16.1448 H   0  0  0  0  0  0  0  0  0  0  0  0
   -7.3942  -17.8536   16.8882 H   0  0  0  0  0  0  0  0  0  0  0  0
   -7.8174  -16.7293   18.0890 H   0  0  0  0  0  0  0  0  0  0  0  0
   -9.8652  -16.1802   17.2621 H   0  0  0  0  0  0  0  0  0  0  0  0
   -9.6975  -17.8780   17.2487 H   0  0  0  0  0  0  0  0  0  0  0  0
  -10.5192  -17.2950   15.0447 H   0  0  0  0  0  0  0  0  0  0  0  0
   -9.0519  -15.2332   14.3020 H   0  0  0  0  0  0  0  0  0  0  0  0
   -8.9916  -16.5047   13.3074 H   0  0  0  0  0  0  0  0  0  0  0  0
   -6.9292  -17.4061   14.5930 H   0  0  0  0  0  0  0  0  0  0  0  0
   -6.7551  -15.9649   13.8373 H   0  0  0  0  0  0  0  0  0  0  0  0
  1  2  1  0
  2  3  1  0
  2  4  1  0
  4  5  2  0
  5  6  1  0
  6  7  1  0
  7  8  1  0
  8  9  1  0
  9 10  1  0
 10 11  1  0
 11 12  2  0
 11 13  1  0
 13 14  1  0
 14 15  1  0
 15 16  1  0
 16 17  1  0
 17 18  1  0
 18 19  1  0
 19 20  1  0
 20 21  1  0
  7 22  2  0
 22  4  1  0
 21 16  1  0
  1 23  1  0
  1 24  1  0
  1 25  1  0
  2 26  1  0
  3 27  1  0
  3 28  1  0
  3 29  1  0
  8 30  1  0
  8 31  1  0
  9 32  1  0
  9 33  1  0
 10 34  1  0
 13 35  1  0
 13 36  1  0
 15 37  1  0
 15 38  1  0
 16 39  1  0
 17 40  1  0
 17 41  1  0
 18 42  1  0
 18 43  1  0
 19 44  1  0
 20 45  1  0
 20 46  1  0
 21 47  1  0
 21 48  1  0
M  END
>  <Energy>  (825) 
344.25192091339164

>  <compound_id>  (825) 
5798

>  <target_id>  (825) 
1

>  <reference_id>  (825) 
70

>  <inspiration_ids>  (825) 
[70, 9]

>  <energy_score>  (825) 
266.35949091671637

>  <distance_score>  (825) 
11.23676093383801

>  <path>  (825) 
/opt/xchem-fragalysis-2/maxwin/BulkDock/SCRATCH/511018/C5798-P70/C5798-P70.minimised.mol

>  <scratch_subdir>  (825) 
/opt/xchem-fragalysis-2/maxwin/BulkDock/SCRATCH/511018/C5798-P70

>  <fragmenstein_runtime>  (825) 
23.93783926963806

>  <fragmenstein_outcome>  (825) 
too moved

>  <fragmenstein_mode>  (825) 
expansion

>  <fragmenstein_error>  (825) 


$$$$
C5798-P9
     RDKit          3D

 48 49  0  0  0  0  0  0  0  0999 V2000
   -1.9145   -2.1188   27.1844 C   0  0  0  0  0  0  0  0  0  0  0  0
   -2.9124   -1.9828   25.7566 C   0  0  0  0  0  0  0  0  0  0  0  0
   -2.7140   -0.3455   25.9425 C   0  0  0  0  0  0  0  0  0  0  0  0
   -2.8170   -3.0425   24.1301 C   0  0  0  0  0  0  0  0  0  0  0  0
   -2.8062   -2.6423   22.8345 N   0  0  0  0  0  0  0  0  0  0  0  0
   -2.8711   -3.7984   22.0008 O   0  0  0  0  0  0  0  0  0  0  0  0
   -2.3915   -4.8891   22.6678 C   0  0  0  0  0  0  0  0  0  0  0  0
   -2.1825   -6.4703   21.9089 C   0  0  0  0  0  0  0  0  0  0  0  0
   -1.5739   -6.9813   20.2527 C   0  0  0  0  0  0  0  0  0  0  0  0
   -1.5845   -8.4603   19.2290 N   0  0  0  0  0  0  0  0  0  0  0  0
   -2.5405   -9.6543   19.1972 C   0  0  0  0  0  0  0  0  0  0  0  0
   -3.5170   -9.8118   19.8229 O   0  0  0  0  0  0  0  0  0  0  0  0
   -2.1978  -11.1454   18.2289 C   0  0  0  0  0  0  0  0  0  0  0  0
   -2.2414  -12.7198   18.5042 O   0  0  0  0  0  0  0  0  0  0  0  0
   -1.8848  -13.8168   17.5064 C   0  0  0  0  0  0  0  0  0  0  0  0
   -1.7598  -15.5836   17.5835 C   0  0  0  0  0  0  0  0  0  0  0  0
   -2.5534  -16.3224   16.4526 C   0  0  0  0  0  0  0  0  0  0  0  0
   -3.6285  -17.3815   16.7890 C   0  0  0  0  0  0  0  0  0  0  0  0
   -3.4461  -18.1227   18.0244 N   0  0  0  0  0  0  0  0  0  0  0  0
   -2.0983  -17.9885   18.5441 C   0  0  0  0  0  0  0  0  0  0  0  0
   -1.7300  -16.5155   18.8369 C   0  0  0  0  0  0  0  0  0  0  0  0
   -2.4012   -4.5294   23.9636 N   0  0  0  0  0  0  0  0  0  0  0  0
   -1.1090   -1.3668   27.2120 H   0  0  0  0  0  0  0  0  0  0  0  0
   -1.3741   -3.0410   27.4174 H   0  0  0  0  0  0  0  0  0  0  0  0
   -2.5434   -1.8829   28.0534 H   0  0  0  0  0  0  0  0  0  0  0  0
   -3.8885   -2.2453   26.1349 H   0  0  0  0  0  0  0  0  0  0  0  0
   -1.7265    0.0325   25.7120 H   0  0  0  0  0  0  0  0  0  0  0  0
   -3.4419    0.3435   25.5303 H   0  0  0  0  0  0  0  0  0  0  0  0
   -2.7916   -0.0674   27.0079 H   0  0  0  0  0  0  0  0  0  0  0  0
   -3.1573   -6.9532   22.0488 H   0  0  0  0  0  0  0  0  0  0  0  0
   -1.4702   -6.9307   22.6038 H   0  0  0  0  0  0  0  0  0  0  0  0
   -0.5495   -6.6101   20.1559 H   0  0  0  0  0  0  0  0  0  0  0  0
   -2.2596   -6.4575   19.6418 H   0  0  0  0  0  0  0  0  0  0  0  0
   -0.8850   -8.5826   18.5160 H   0  0  0  0  0  0  0  0  0  0  0  0
   -3.0354  -11.0383   17.5447 H   0  0  0  0  0  0  0  0  0  0  0  0
   -1.2830  -10.9096   17.8074 H   0  0  0  0  0  0  0  0  0  0  0  0
   -2.6007  -13.7096   16.7283 H   0  0  0  0  0  0  0  0  0  0  0  0
   -0.8784  -13.5548   17.2036 H   0  0  0  0  0  0  0  0  0  0  0  0
   -0.7234  -15.6670   17.2101 H   0  0  0  0  0  0  0  0  0  0  0  0
   -3.0459  -15.5609   15.8771 H   0  0  0  0  0  0  0  0  0  0  0  0
   -1.8156  -16.8078   15.7993 H   0  0  0  0  0  0  0  0  0  0  0  0
   -4.6138  -16.9047   16.8284 H   0  0  0  0  0  0  0  0  0  0  0  0
   -3.6811  -18.0853   15.9485 H   0  0  0  0  0  0  0  0  0  0  0  0
   -3.6714  -19.1063   17.8761 H   0  0  0  0  0  0  0  0  0  0  0  0
   -2.0257  -18.5544   19.4799 H   0  0  0  0  0  0  0  0  0  0  0  0
   -1.3696  -18.4316   17.8538 H   0  0  0  0  0  0  0  0  0  0  0  0
   -2.3514  -16.1533   19.6581 H   0  0  0  0  0  0  0  0  0  0  0  0
   -0.7067  -16.5381   19.2336 H   0  0  0  0  0  0  0  0  0  0  0  0
  1  2  1  0
  2  3  1  0
  2  4  1  0
  4  5  2  0
  5  6  1  0
  6  7  1  0
  7  8  1  0
  8  9  1  0
  9 10  1  0
 10 11  1  0
 11 12  2  0
 11 13  1  0
 13 14  1  0
 14 15  1  0
 15 16  1  0
 16 17  1  0
 17 18  1  0
 18 19  1  0
 19 20  1  0
 20 21  1  0
  7 22  2  0
 22  4  1  0
 21 16  1  0
  1 23  1  0
  1 24  1  0
  1 25  1  0
  2 26  1  0
  3 27  1  0
  3 28  1  0
  3 29  1  0
  8 30  1  0
  8 31  1  0
  9 32  1  0
  9 33  1  0
 10 34  1  0
 13 35  1  0
 13 36  1  0
 15 37  1  0
 15 38  1  0
 16 39  1  0
 17 40  1  0
 17 41  1  0
 18 42  1  0
 18 43  1  0
 19 44  1  0
 20 45  1  0
 20 46  1  0
 21 47  1  0
 21 48  1  0
M  END
>  <Energy>  (826) 
407.09979873130874

>  <compound_id>  (826) 
5798

>  <target_id>  (826) 
1

>  <reference_id>  (826) 
9

>  <inspiration_ids>  (826) 
[70, 9]

>  <energy_score>  (826) 
329.207368734634

>  <distance_score>  (826) 
10.76101282407613

>  <path>  (826) 
/opt/xchem-fragalysis-2/maxwin/BulkDock/SCRATCH/511018/C5798-P9/C5798-P9.minimised.mol

>  <scratch_subdir>  (826) 
/opt/xchem-fragalysis-2/maxwin/BulkDock/SCRATCH/511018/C5798-P9

>  <fragmenstein_runtime>  (826) 
15.384382009506226

>  <fragmenstein_outcome>  (826) 
too moved

>  <fragmenstein_mode>  (826) 
expansion

>  <fragmenstein_error>  (826) 


$$$$
C5804-P70
     RDKit          3D

 43 45  0  0  0  0  0  0  0  0999 V2000
    1.7880   -9.5438   22.2356 C   0  0  0  0  0  0  0  0  0  0  0  0
    0.6761   -8.4710   22.2638 C   0  0  0  0  0  0  0  0  0  0  0  0
   -0.7312   -8.9858   21.8631 C   0  0  0  0  0  0  0  0  0  0  0  0
    0.9595   -7.4842   23.3520 N   0  0  0  0  0  0  0  0  0  0  0  0
    0.6252   -7.4947   24.7733 C   0  0  0  0  0  0  0  0  0  0  0  0
   -0.5924   -6.5848   25.0658 C   0  0  0  0  0  0  0  0  0  0  0  0
   -0.7480   -5.6602   23.8825 C   0  0  0  0  0  0  0  0  0  0  0  0
   -2.1996   -4.5672   23.8338 C   0  0  0  0  0  0  0  0  0  0  0  0
   -2.6062   -4.1842   25.0406 N   0  0  0  0  0  0  0  0  0  0  0  0
   -3.0687   -2.9089   25.1879 C   0  0  0  0  0  0  0  0  0  0  0  0
   -2.7590   -1.9465   26.7944 C   0  0  0  0  0  0  0  0  0  0  0  0
   -1.6628   -2.4592   27.8936 C   0  0  0  0  0  0  0  0  0  0  0  0
   -0.8199   -1.4382   28.6524 C   0  0  0  0  0  0  0  0  0  0  0  0
   -0.1932   -0.5280   27.7280 N   0  0  0  0  0  0  0  0  0  0  0  0
   -1.1990    0.3359   27.1649 C   0  0  0  0  0  0  0  0  0  0  0  0
   -2.5027   -0.3764   26.7682 C   0  0  0  0  0  0  0  0  0  0  0  0
   -3.1520   -2.5002   23.8809 N   0  0  0  0  0  0  0  0  0  0  0  0
   -2.4418   -3.4264   23.0694 O   0  0  0  0  0  0  0  0  0  0  0  0
    0.7558   -6.0815   23.0230 C   0  0  0  0  0  0  0  0  0  0  0  0
    1.6001  -10.2952   21.4635 H   0  0  0  0  0  0  0  0  0  0  0  0
    2.7504   -9.0739   21.9951 H   0  0  0  0  0  0  0  0  0  0  0  0
    1.9403  -10.0692   23.1791 H   0  0  0  0  0  0  0  0  0  0  0  0
    0.9572   -7.9159   21.3565 H   0  0  0  0  0  0  0  0  0  0  0  0
   -0.7306  -10.0603   21.7175 H   0  0  0  0  0  0  0  0  0  0  0  0
   -1.0197   -8.5643   20.8956 H   0  0  0  0  0  0  0  0  0  0  0  0
   -1.5038   -8.6584   22.5549 H   0  0  0  0  0  0  0  0  0  0  0  0
    1.4852   -7.0276   25.2792 H   0  0  0  0  0  0  0  0  0  0  0  0
    0.5705   -8.4302   25.3143 H   0  0  0  0  0  0  0  0  0  0  0  0
   -1.4638   -7.2249   25.1616 H   0  0  0  0  0  0  0  0  0  0  0  0
   -0.4748   -6.0933   26.0357 H   0  0  0  0  0  0  0  0  0  0  0  0
   -0.3483   -4.7384   23.4478 H   0  0  0  0  0  0  0  0  0  0  0  0
   -3.7236   -2.1631   27.2630 H   0  0  0  0  0  0  0  0  0  0  0  0
   -0.9679   -3.1970   27.4893 H   0  0  0  0  0  0  0  0  0  0  0  0
   -2.2086   -2.9557   28.7071 H   0  0  0  0  0  0  0  0  0  0  0  0
   -0.0450   -1.9732   29.2141 H   0  0  0  0  0  0  0  0  0  0  0  0
   -1.4231   -0.9050   29.3987 H   0  0  0  0  0  0  0  0  0  0  0  0
    0.5324    0.0201   28.1876 H   0  0  0  0  0  0  0  0  0  0  0  0
   -0.7936    0.9232   26.3455 H   0  0  0  0  0  0  0  0  0  0  0  0
   -1.4428    1.1094   27.9101 H   0  0  0  0  0  0  0  0  0  0  0  0
   -2.9842    0.1519   25.9597 H   0  0  0  0  0  0  0  0  0  0  0  0
   -3.0448   -0.0893   27.6458 H   0  0  0  0  0  0  0  0  0  0  0  0
    0.8127   -5.8515   21.9511 H   0  0  0  0  0  0  0  0  0  0  0  0
    1.6531   -5.5583   23.3679 H   0  0  0  0  0  0  0  0  0  0  0  0
  1  2  1  0
  2  3  1  0
  2  4  1  0
  4  5  1  0
  5  6  1  0
  6  7  1  0
  7  8  1  0
  8  9  2  0
  9 10  1  0
 10 11  1  0
 11 12  1  0
 12 13  1  0
 13 14  1  0
 14 15  1  0
 15 16  1  0
 10 17  2  0
 17 18  1  0
  7 19  1  0
 19  4  1  0
 18  8  1  0
 16 11  1  0
  1 20  1  0
  1 21  1  0
  1 22  1  0
  2 23  1  0
  3 24  1  0
  3 25  1  0
  3 26  1  0
  5 27  1  0
  5 28  1  0
  6 29  1  0
  6 30  1  0
  7 31  1  0
 11 32  1  0
 12 33  1  0
 12 34  1  0
 13 35  1  0
 13 36  1  0
 14 37  1  0
 15 38  1  0
 15 39  1  0
 16 40  1  0
 16 41  1  0
 19 42  1  0
 19 43  1  0
M  END
>  <Energy>  (827) 
270.95848178756603

>  <compound_id>  (827) 
5804

>  <target_id>  (827) 
1

>  <reference_id>  (827) 
70

>  <inspiration_ids>  (827) 
[70, 9]

>  <energy_score>  (827) 
217.36563365424786

>  <distance_score>  (827) 
13.414873653522607

>  <path>  (827) 
/opt/xchem-fragalysis-2/maxwin/BulkDock/SCRATCH/511018/C5804-P70/C5804-P70.minimised.mol

>  <scratch_subdir>  (827) 
/opt/xchem-fragalysis-2/maxwin/BulkDock/SCRATCH/511018/C5804-P70

>  <fragmenstein_runtime>  (827) 
14.056779623031616

>  <fragmenstein_outcome>  (827) 
too moved

>  <fragmenstein_mode>  (827) 
expansion

>  <fragmenstein_error>  (827) 


$$$$
C5804-P9
     RDKit          3D

 43 45  0  0  0  0  0  0  0  0999 V2000
  -11.3768   -7.7502   29.4385 C   0  0  0  0  0  0  0  0  0  0  0  0
  -10.0726   -8.3292   30.0128 C   0  0  0  0  0  0  0  0  0  0  0  0
   -9.8413   -9.7579   29.4274 C   0  0  0  0  0  0  0  0  0  0  0  0
   -8.8701   -7.3739   29.9710 N   0  0  0  0  0  0  0  0  0  0  0  0
   -7.9995   -7.5351   31.1415 C   0  0  0  0  0  0  0  0  0  0  0  0
   -7.0241   -6.3584   31.0255 C   0  0  0  0  0  0  0  0  0  0  0  0
   -7.8135   -5.1834   30.4511 C   0  0  0  0  0  0  0  0  0  0  0  0
   -7.0224   -4.3280   29.4850 C   0  0  0  0  0  0  0  0  0  0  0  0
   -5.7487   -3.9965   29.4373 N   0  0  0  0  0  0  0  0  0  0  0  0
   -5.3952   -3.1876   28.2440 C   0  0  0  0  0  0  0  0  0  0  0  0
   -3.6886   -2.2656   27.8510 C   0  0  0  0  0  0  0  0  0  0  0  0
   -2.4840   -2.5689   29.0525 C   0  0  0  0  0  0  0  0  0  0  0  0
   -1.9243   -1.3345   29.8002 C   0  0  0  0  0  0  0  0  0  0  0  0
   -1.2633   -0.3652   28.9614 N   0  0  0  0  0  0  0  0  0  0  0  0
   -1.3652   -0.7703   27.5724 C   0  0  0  0  0  0  0  0  0  0  0  0
   -2.8433   -0.9926   27.1940 C   0  0  0  0  0  0  0  0  0  0  0  0
   -6.8011   -2.8613   27.8849 N   0  0  0  0  0  0  0  0  0  0  0  0
   -7.7018   -3.6196   28.5761 O   0  0  0  0  0  0  0  0  0  0  0  0
   -9.1156   -5.8879   29.9515 C   0  0  0  0  0  0  0  0  0  0  0  0
  -11.3146   -7.5252   28.3733 H   0  0  0  0  0  0  0  0  0  0  0  0
  -11.6772   -6.8376   29.9623 H   0  0  0  0  0  0  0  0  0  0  0  0
  -12.1966   -8.4663   29.5694 H   0  0  0  0  0  0  0  0  0  0  0  0
  -10.2956   -8.4819   31.0785 H   0  0  0  0  0  0  0  0  0  0  0  0
   -9.7378   -9.7425   28.3457 H   0  0  0  0  0  0  0  0  0  0  0  0
   -8.9529  -10.2023   29.8825 H   0  0  0  0  0  0  0  0  0  0  0  0
  -10.6911  -10.4052   29.6705 H   0  0  0  0  0  0  0  0  0  0  0  0
   -7.4678   -8.4916   31.1299 H   0  0  0  0  0  0  0  0  0  0  0  0
   -8.5621   -7.4536   32.0801 H   0  0  0  0  0  0  0  0  0  0  0  0
   -6.2038   -6.6589   30.3751 H   0  0  0  0  0  0  0  0  0  0  0  0
   -6.6152   -6.1133   32.0094 H   0  0  0  0  0  0  0  0  0  0  0  0
   -8.0979   -4.5191   31.2790 H   0  0  0  0  0  0  0  0  0  0  0  0
   -3.8222   -2.5763   26.8024 H   0  0  0  0  0  0  0  0  0  0  0  0
   -1.6339   -3.1283   28.6386 H   0  0  0  0  0  0  0  0  0  0  0  0
   -2.8348   -3.1343   29.8958 H   0  0  0  0  0  0  0  0  0  0  0  0
   -2.7176   -0.8296   30.3606 H   0  0  0  0  0  0  0  0  0  0  0  0
   -1.2104   -1.6885   30.5550 H   0  0  0  0  0  0  0  0  0  0  0  0
   -0.2805   -0.2712   29.2136 H   0  0  0  0  0  0  0  0  0  0  0  0
   -0.7396   -1.6451   27.3934 H   0  0  0  0  0  0  0  0  0  0  0  0
   -0.9599    0.0405   26.9565 H   0  0  0  0  0  0  0  0  0  0  0  0
   -2.8312   -1.1180   26.1036 H   0  0  0  0  0  0  0  0  0  0  0  0
   -3.2158    0.0098   27.3754 H   0  0  0  0  0  0  0  0  0  0  0  0
   -9.9067   -5.6549   30.6766 H   0  0  0  0  0  0  0  0  0  0  0  0
   -9.4476   -5.5195   28.9811 H   0  0  0  0  0  0  0  0  0  0  0  0
  1  2  1  0
  2  3  1  0
  2  4  1  0
  4  5  1  0
  5  6  1  0
  6  7  1  0
  7  8  1  0
  8  9  2  0
  9 10  1  0
 10 11  1  0
 11 12  1  0
 12 13  1  0
 13 14  1  0
 14 15  1  0
 15 16  1  0
 10 17  2  0
 17 18  1  0
  7 19  1  0
 19  4  1  0
 18  8  1  0
 16 11  1  0
  1 20  1  0
  1 21  1  0
  1 22  1  0
  2 23  1  0
  3 24  1  0
  3 25  1  0
  3 26  1  0
  5 27  1  0
  5 28  1  0
  6 29  1  0
  6 30  1  0
  7 31  1  0
 11 32  1  0
 12 33  1  0
 12 34  1  0
 13 35  1  0
 13 36  1  0
 14 37  1  0
 15 38  1  0
 15 39  1  0
 16 40  1  0
 16 41  1  0
 19 42  1  0
 19 43  1  0
M  END
>  <Energy>  (828) 
210.77590082124908

>  <compound_id>  (828) 
5804

>  <target_id>  (828) 
1

>  <reference_id>  (828) 
9

>  <inspiration_ids>  (828) 
[70, 9]

>  <energy_score>  (828) 
157.18305268793245

>  <distance_score>  (828) 
13.507225503323049

>  <path>  (828) 
/opt/xchem-fragalysis-2/maxwin/BulkDock/SCRATCH/511018/C5804-P9/C5804-P9.minimised.mol

>  <scratch_subdir>  (828) 
/opt/xchem-fragalysis-2/maxwin/BulkDock/SCRATCH/511018/C5804-P9

>  <fragmenstein_runtime>  (828) 
15.298776149749756

>  <fragmenstein_outcome>  (828) 
too moved

>  <fragmenstein_mode>  (828) 
expansion

>  <fragmenstein_error>  (828) 


$$$$
C5807-P70
     RDKit          3D

 46 47  0  0  0  0  0  0  0  0999 V2000
  -13.8922  -10.7207   23.0924 C   0  0  0  0  0  0  0  0  0  0  0  0
  -13.1017  -10.9023   21.9183 O   0  0  0  0  0  0  0  0  0  0  0  0
  -11.9005  -10.1608   22.1016 N   0  0  0  0  0  0  0  0  0  0  0  0
  -11.5382   -8.8389   21.6653 C   0  0  0  0  0  0  0  0  0  0  0  0
  -12.1323   -8.0552   20.9561 O   0  0  0  0  0  0  0  0  0  0  0  0
  -10.1732   -8.2704   22.3197 C   0  0  0  0  0  0  0  0  0  0  0  0
   -9.4752   -7.2386   21.3980 C   0  0  0  0  0  0  0  0  0  0  0  0
   -9.5005   -5.8867   22.0998 C   0  0  0  0  0  0  0  0  0  0  0  0
  -10.6912   -6.0254   23.0103 C   0  0  0  0  0  0  0  0  0  0  0  0
  -10.5950   -7.4083   23.4879 N   0  0  0  0  0  0  0  0  0  0  0  0
  -10.0218   -7.5600   24.8313 C   0  0  0  0  0  0  0  0  0  0  0  0
   -9.6219   -8.9985   25.1785 C   0  0  0  0  0  0  0  0  0  0  0  0
   -8.9333   -6.5825   25.2773 C   0  0  0  0  0  0  0  0  0  0  0  0
  -11.3733  -11.2658   21.0871 C   0  0  0  0  0  0  0  0  0  0  0  0
  -11.6058  -12.7914   21.5224 C   0  0  0  0  0  0  0  0  0  0  0  0
  -11.2316  -13.7922   20.4230 C   0  0  0  0  0  0  0  0  0  0  0  0
   -9.8269  -13.6617   20.0648 N   0  0  0  0  0  0  0  0  0  0  0  0
   -9.5250  -12.2974   19.6372 C   0  0  0  0  0  0  0  0  0  0  0  0
   -9.8804  -11.2184   20.6905 C   0  0  0  0  0  0  0  0  0  0  0  0
  -14.8091  -11.3055   22.9808 H   0  0  0  0  0  0  0  0  0  0  0  0
  -14.1608   -9.6664   23.2121 H   0  0  0  0  0  0  0  0  0  0  0  0
  -13.3531  -11.0788   23.9753 H   0  0  0  0  0  0  0  0  0  0  0  0
   -9.5208   -9.1006   22.5901 H   0  0  0  0  0  0  0  0  0  0  0  0
   -8.4457   -7.5002   21.1918 H   0  0  0  0  0  0  0  0  0  0  0  0
   -9.9684   -7.1605   20.4228 H   0  0  0  0  0  0  0  0  0  0  0  0
   -8.5739   -5.7264   22.6591 H   0  0  0  0  0  0  0  0  0  0  0  0
   -9.6124   -5.0625   21.3889 H   0  0  0  0  0  0  0  0  0  0  0  0
  -11.6167   -5.9148   22.4312 H   0  0  0  0  0  0  0  0  0  0  0  0
  -10.7500   -5.2612   23.7896 H   0  0  0  0  0  0  0  0  0  0  0  0
  -10.8719   -7.3389   25.4929 H   0  0  0  0  0  0  0  0  0  0  0  0
   -9.4257   -9.0918   26.2527 H   0  0  0  0  0  0  0  0  0  0  0  0
   -8.7149   -9.3105   24.6529 H   0  0  0  0  0  0  0  0  0  0  0  0
  -10.4253   -9.7024   24.9350 H   0  0  0  0  0  0  0  0  0  0  0  0
   -8.8592   -6.6226   26.3663 H   0  0  0  0  0  0  0  0  0  0  0  0
   -7.9711   -6.8474   24.8439 H   0  0  0  0  0  0  0  0  0  0  0  0
   -9.1598   -5.5406   25.0448 H   0  0  0  0  0  0  0  0  0  0  0  0
  -11.9173  -11.0861   20.1402 H   0  0  0  0  0  0  0  0  0  0  0  0
  -11.0191  -12.9851   22.4307 H   0  0  0  0  0  0  0  0  0  0  0  0
  -12.6468  -13.0067   21.7871 H   0  0  0  0  0  0  0  0  0  0  0  0
  -11.4109  -14.8096   20.7871 H   0  0  0  0  0  0  0  0  0  0  0  0
  -11.8696  -13.6452   19.5433 H   0  0  0  0  0  0  0  0  0  0  0  0
   -9.6067  -14.3116   19.3089 H   0  0  0  0  0  0  0  0  0  0  0  0
   -8.4523  -12.2297   19.4235 H   0  0  0  0  0  0  0  0  0  0  0  0
  -10.0477  -12.0770   18.6979 H   0  0  0  0  0  0  0  0  0  0  0  0
   -9.6401  -10.2385   20.2650 H   0  0  0  0  0  0  0  0  0  0  0  0
   -9.2544  -11.3470   21.5821 H   0  0  0  0  0  0  0  0  0  0  0  0
  1  2  1  0
  2  3  1  0
  3  4  1  0
  4  5  2  0
  4  6  1  0
  6  7  1  0
  7  8  1  0
  8  9  1  0
  9 10  1  0
 10 11  1  0
 11 12  1  0
 11 13  1  0
  3 14  1  0
 14 15  1  0
 15 16  1  0
 16 17  1  0
 17 18  1  0
 18 19  1  0
 10  6  1  0
 19 14  1  0
  1 20  1  0
  1 21  1  0
  1 22  1  0
  6 23  1  0
  7 24  1  0
  7 25  1  0
  8 26  1  0
  8 27  1  0
  9 28  1  0
  9 29  1  0
 11 30  1  0
 12 31  1  0
 12 32  1  0
 12 33  1  0
 13 34  1  0
 13 35  1  0
 13 36  1  0
 14 37  1  0
 15 38  1  0
 15 39  1  0
 16 40  1  0
 16 41  1  0
 17 42  1  0
 18 43  1  0
 18 44  1  0
 19 45  1  0
 19 46  1  0
M  END
>  <Energy>  (829) 
135.88649257687166

>  <compound_id>  (829) 
5807

>  <target_id>  (829) 
1

>  <reference_id>  (829) 
70

>  <inspiration_ids>  (829) 
[70, 9]

>  <energy_score>  (829) 
29.390639280948506

>  <distance_score>  (829) 
14.321621829978561

>  <path>  (829) 
/opt/xchem-fragalysis-2/maxwin/BulkDock/SCRATCH/511018/C5807-P70/C5807-P70.minimised.mol

>  <scratch_subdir>  (829) 
/opt/xchem-fragalysis-2/maxwin/BulkDock/SCRATCH/511018/C5807-P70

>  <fragmenstein_runtime>  (829) 
14.691078901290894

>  <fragmenstein_outcome>  (829) 
too moved

>  <fragmenstein_mode>  (829) 
expansion

>  <fragmenstein_error>  (829) 


$$$$
C5807-P9
     RDKit          3D

 46 47  0  0  0  0  0  0  0  0999 V2000
   -3.4716  -13.2242   13.2066 C   0  0  0  0  0  0  0  0  0  0  0  0
   -3.1526  -13.9923   14.3652 O   0  0  0  0  0  0  0  0  0  0  0  0
   -2.7778  -13.0806   15.3915 N   0  0  0  0  0  0  0  0  0  0  0  0
   -1.4779  -12.6813   15.8670 C   0  0  0  0  0  0  0  0  0  0  0  0
   -0.3754  -13.0862   15.5717 O   0  0  0  0  0  0  0  0  0  0  0  0
   -1.5263  -11.4225   16.8708 C   0  0  0  0  0  0  0  0  0  0  0  0
   -2.9234  -11.0436   17.3515 C   0  0  0  0  0  0  0  0  0  0  0  0
   -2.8751   -9.5717   17.6757 C   0  0  0  0  0  0  0  0  0  0  0  0
   -1.6284   -9.0356   17.0822 C   0  0  0  0  0  0  0  0  0  0  0  0
   -1.0348  -10.0987   16.2966 N   0  0  0  0  0  0  0  0  0  0  0  0
    0.4235   -9.8845   16.1454 C   0  0  0  0  0  0  0  0  0  0  0  0
    0.7757  -10.1971   14.6790 C   0  0  0  0  0  0  0  0  0  0  0  0
    0.9726   -8.4365   16.4128 C   0  0  0  0  0  0  0  0  0  0  0  0
   -3.3632  -14.2137   16.2674 C   0  0  0  0  0  0  0  0  0  0  0  0
   -2.7515  -15.6624   16.2107 C   0  0  0  0  0  0  0  0  0  0  0  0
   -3.5782  -16.7123   15.4436 C   0  0  0  0  0  0  0  0  0  0  0  0
   -4.9870  -16.7303   15.8396 N   0  0  0  0  0  0  0  0  0  0  0  0
   -5.5780  -15.4306   15.5307 C   0  0  0  0  0  0  0  0  0  0  0  0
   -4.9273  -14.2817   16.3164 C   0  0  0  0  0  0  0  0  0  0  0  0
   -4.3000  -12.5406   13.4178 H   0  0  0  0  0  0  0  0  0  0  0  0
   -3.7783  -13.9124   12.4146 H   0  0  0  0  0  0  0  0  0  0  0  0
   -2.5941  -12.6654   12.8664 H   0  0  0  0  0  0  0  0  0  0  0  0
   -0.9251  -11.7035   17.7415 H   0  0  0  0  0  0  0  0  0  0  0  0
   -3.2355  -11.6416   18.2126 H   0  0  0  0  0  0  0  0  0  0  0  0
   -3.6844  -11.1869   16.5764 H   0  0  0  0  0  0  0  0  0  0  0  0
   -3.7188   -9.0595   17.2024 H   0  0  0  0  0  0  0  0  0  0  0  0
   -2.8695   -9.4112   18.7577 H   0  0  0  0  0  0  0  0  0  0  0  0
   -1.0236   -8.6892   17.9141 H   0  0  0  0  0  0  0  0  0  0  0  0
   -1.8508   -8.2035   16.4148 H   0  0  0  0  0  0  0  0  0  0  0  0
    0.9828  -10.5822   16.7763 H   0  0  0  0  0  0  0  0  0  0  0  0
    0.4832  -11.2042   14.3786 H   0  0  0  0  0  0  0  0  0  0  0  0
    0.2843   -9.4944   13.9956 H   0  0  0  0  0  0  0  0  0  0  0  0
    1.8568  -10.1185   14.5173 H   0  0  0  0  0  0  0  0  0  0  0  0
    0.9053   -8.1080   17.4487 H   0  0  0  0  0  0  0  0  0  0  0  0
    2.0375   -8.3971   16.1531 H   0  0  0  0  0  0  0  0  0  0  0  0
    0.4619   -7.7023   15.7798 H   0  0  0  0  0  0  0  0  0  0  0  0
   -3.0849  -13.8650   17.2738 H   0  0  0  0  0  0  0  0  0  0  0  0
   -1.7292  -15.6333   15.8160 H   0  0  0  0  0  0  0  0  0  0  0  0
   -2.6663  -16.0171   17.2477 H   0  0  0  0  0  0  0  0  0  0  0  0
   -3.1520  -17.7036   15.6364 H   0  0  0  0  0  0  0  0  0  0  0  0
   -3.4933  -16.5551   14.3618 H   0  0  0  0  0  0  0  0  0  0  0  0
   -5.0562  -16.9110   16.8402 H   0  0  0  0  0  0  0  0  0  0  0  0
   -5.5256  -15.2372   14.4528 H   0  0  0  0  0  0  0  0  0  0  0  0
   -6.6451  -15.4667   15.7784 H   0  0  0  0  0  0  0  0  0  0  0  0
   -5.2155  -14.4043   17.3700 H   0  0  0  0  0  0  0  0  0  0  0  0
   -5.3553  -13.3249   15.9943 H   0  0  0  0  0  0  0  0  0  0  0  0
  1  2  1  0
  2  3  1  0
  3  4  1  0
  4  5  2  0
  4  6  1  0
  6  7  1  0
  7  8  1  0
  8  9  1  0
  9 10  1  0
 10 11  1  0
 11 12  1  0
 11 13  1  0
  3 14  1  0
 14 15  1  0
 15 16  1  0
 16 17  1  0
 17 18  1  0
 18 19  1  0
 10  6  1  0
 19 14  1  0
  1 20  1  0
  1 21  1  0
  1 22  1  0
  6 23  1  0
  7 24  1  0
  7 25  1  0
  8 26  1  0
  8 27  1  0
  9 28  1  0
  9 29  1  0
 11 30  1  0
 12 31  1  0
 12 32  1  0
 12 33  1  0
 13 34  1  0
 13 35  1  0
 13 36  1  0
 14 37  1  0
 15 38  1  0
 15 39  1  0
 16 40  1  0
 16 41  1  0
 17 42  1  0
 18 43  1  0
 18 44  1  0
 19 45  1  0
 19 46  1  0
M  END
>  <Energy>  (830) 
133.23948858092223

>  <compound_id>  (830) 
5807

>  <target_id>  (830) 
1

>  <reference_id>  (830) 
9

>  <inspiration_ids>  (830) 
[70, 9]

>  <energy_score>  (830) 
26.74363528499856

>  <distance_score>  (830) 
14.579029830761138

>  <path>  (830) 
/opt/xchem-fragalysis-2/maxwin/BulkDock/SCRATCH/511018/C5807-P9/C5807-P9.minimised.mol

>  <scratch_subdir>  (830) 
/opt/xchem-fragalysis-2/maxwin/BulkDock/SCRATCH/511018/C5807-P9

>  <fragmenstein_runtime>  (830) 
20.0858097076416

>  <fragmenstein_outcome>  (830) 
too moved

>  <fragmenstein_mode>  (830) 
expansion

>  <fragmenstein_error>  (830) 


$$$$
C5809-P70
     RDKit          3D

 45 46  0  0  0  0  0  0  0  0999 V2000
    1.7683  -11.0075   21.1256 C   0  0  0  0  0  0  0  0  0  0  0  0
    0.5897  -10.0479   20.9150 C   0  0  0  0  0  0  0  0  0  0  0  0
    1.0758   -8.6073   21.2032 C   0  0  0  0  0  0  0  0  0  0  0  0
    0.0225  -10.3706   19.5706 N   0  0  0  0  0  0  0  0  0  0  0  0
   -0.6565   -9.2377   18.9501 C   0  0  0  0  0  0  0  0  0  0  0  0
   -1.9996   -9.2375   19.6329 C   0  0  0  0  0  0  0  0  0  0  0  0
   -2.3616  -10.7041   19.6580 C   0  0  0  0  0  0  0  0  0  0  0  0
   -1.0467  -11.4902   19.5918 C   0  0  0  0  0  0  0  0  0  0  0  0
   -0.9213  -12.4866   18.3181 C   0  0  0  0  0  0  0  0  0  0  0  0
    0.1928  -12.7861   17.9587 O   0  0  0  0  0  0  0  0  0  0  0  0
   -2.2236  -12.7993   17.7287 N   0  0  0  0  0  0  0  0  0  0  0  0
   -2.5682  -13.4770   16.4622 C   0  0  0  0  0  0  0  0  0  0  0  0
   -2.8079  -14.1796   18.3518 C   0  0  0  0  0  0  0  0  0  0  0  0
   -2.2727  -15.6218   18.0038 C   0  0  0  0  0  0  0  0  0  0  0  0
   -3.2174  -16.4960   17.1440 C   0  0  0  0  0  0  0  0  0  0  0  0
   -4.6446  -16.3767   17.4302 N   0  0  0  0  0  0  0  0  0  0  0  0
   -4.9390  -15.6325   18.6431 C   0  0  0  0  0  0  0  0  0  0  0  0
   -4.3635  -14.2074   18.5699 C   0  0  0  0  0  0  0  0  0  0  0  0
    2.5591  -10.8303   20.3875 H   0  0  0  0  0  0  0  0  0  0  0  0
    2.2077  -10.8777   22.1202 H   0  0  0  0  0  0  0  0  0  0  0  0
    1.4581  -12.0547   21.0415 H   0  0  0  0  0  0  0  0  0  0  0  0
   -0.1700  -10.2345   21.6639 H   0  0  0  0  0  0  0  0  0  0  0  0
    1.7525   -8.2484   20.4213 H   0  0  0  0  0  0  0  0  0  0  0  0
    1.6136   -8.5632   22.1566 H   0  0  0  0  0  0  0  0  0  0  0  0
    0.2282   -7.9323   21.2897 H   0  0  0  0  0  0  0  0  0  0  0  0
   -0.1115   -8.2949   19.0028 H   0  0  0  0  0  0  0  0  0  0  0  0
   -0.7814   -9.4414   17.8781 H   0  0  0  0  0  0  0  0  0  0  0  0
   -2.7306   -8.6627   19.0665 H   0  0  0  0  0  0  0  0  0  0  0  0
   -1.9565   -8.8486   20.6561 H   0  0  0  0  0  0  0  0  0  0  0  0
   -3.0362  -10.9104   18.8250 H   0  0  0  0  0  0  0  0  0  0  0  0
   -2.9025  -10.9307   20.5636 H   0  0  0  0  0  0  0  0  0  0  0  0
   -0.9111  -12.1353   20.4657 H   0  0  0  0  0  0  0  0  0  0  0  0
   -3.6060  -13.7628   16.2727 H   0  0  0  0  0  0  0  0  0  0  0  0
   -1.8101  -14.1929   16.1279 H   0  0  0  0  0  0  0  0  0  0  0  0
   -2.4225  -12.6687   15.7283 H   0  0  0  0  0  0  0  0  0  0  0  0
   -2.4321  -14.0641   19.3828 H   0  0  0  0  0  0  0  0  0  0  0  0
   -1.2641  -15.5916   17.5763 H   0  0  0  0  0  0  0  0  0  0  0  0
   -2.1520  -16.1504   18.9615 H   0  0  0  0  0  0  0  0  0  0  0  0
   -3.0675  -16.2643   16.0841 H   0  0  0  0  0  0  0  0  0  0  0  0
   -2.9145  -17.5429   17.2687 H   0  0  0  0  0  0  0  0  0  0  0  0
   -5.0786  -17.3001   17.4534 H   0  0  0  0  0  0  0  0  0  0  0  0
   -6.0261  -15.5654   18.7632 H   0  0  0  0  0  0  0  0  0  0  0  0
   -4.5562  -16.1584   19.5259 H   0  0  0  0  0  0  0  0  0  0  0  0
   -4.8962  -13.6388   17.7996 H   0  0  0  0  0  0  0  0  0  0  0  0
   -4.5906  -13.6834   19.5077 H   0  0  0  0  0  0  0  0  0  0  0  0
  1  2  1  0
  2  3  1  0
  2  4  1  0
  4  5  1  0
  5  6  1  0
  6  7  1  0
  7  8  1  0
  8  9  1  0
  9 10  2  0
  9 11  1  0
 11 12  1  0
 11 13  1  0
 13 14  1  0
 14 15  1  0
 15 16  1  0
 16 17  1  0
 17 18  1  0
  8  4  1  0
 18 13  1  0
  1 19  1  0
  1 20  1  0
  1 21  1  0
  2 22  1  0
  3 23  1  0
  3 24  1  0
  3 25  1  0
  5 26  1  0
  5 27  1  0
  6 28  1  0
  6 29  1  0
  7 30  1  0
  7 31  1  0
  8 32  1  0
 12 33  1  0
 12 34  1  0
 12 35  1  0
 13 36  1  0
 14 37  1  0
 14 38  1  0
 15 39  1  0
 15 40  1  0
 16 41  1  0
 17 42  1  0
 17 43  1  0
 18 44  1  0
 18 45  1  0
M  END
>  <Energy>  (831) 
141.0625160430402

>  <compound_id>  (831) 
5809

>  <target_id>  (831) 
1

>  <reference_id>  (831) 
70

>  <inspiration_ids>  (831) 
[70, 9]

>  <energy_score>  (831) 
26.08692595803791

>  <distance_score>  (831) 
13.908159875034194

>  <path>  (831) 
/opt/xchem-fragalysis-2/maxwin/BulkDock/SCRATCH/511018/C5809-P70/C5809-P70.minimised.mol

>  <scratch_subdir>  (831) 
/opt/xchem-fragalysis-2/maxwin/BulkDock/SCRATCH/511018/C5809-P70

>  <fragmenstein_runtime>  (831) 
15.169752836227417

>  <fragmenstein_outcome>  (831) 
too moved

>  <fragmenstein_mode>  (831) 
expansion

>  <fragmenstein_error>  (831) 


$$$$
C5809-P9
     RDKit          3D

 45 46  0  0  0  0  0  0  0  0999 V2000
   -4.5018   -7.1269   22.5138 C   0  0  0  0  0  0  0  0  0  0  0  0
   -3.6204   -8.3075   22.7894 C   0  0  0  0  0  0  0  0  0  0  0  0
   -2.2483   -6.9018   23.5301 C   0  0  0  0  0  0  0  0  0  0  0  0
   -4.0024  -10.2447   23.4751 N   0  0  0  0  0  0  0  0  0  0  0  0
   -3.6073   -9.9374   22.2217 C   0  0  0  0  0  0  0  0  0  0  0  0
   -3.0235  -10.1798   23.7555 C   0  0  0  0  0  0  0  0  0  0  0  0
   -3.5404  -11.8642   24.5654 C   0  0  0  0  0  0  0  0  0  0  0  0
   -5.4694  -11.4617   24.4214 C   0  0  0  0  0  0  0  0  0  0  0  0
   -5.7239  -13.1544   24.8362 C   0  0  0  0  0  0  0  0  0  0  0  0
   -4.8744  -13.7308   25.4671 O   0  0  0  0  0  0  0  0  0  0  0  0
   -7.0539  -13.6013   24.4064 N   0  0  0  0  0  0  0  0  0  0  0  0
   -7.7916  -14.8370   24.7081 C   0  0  0  0  0  0  0  0  0  0  0  0
   -6.9717  -14.3050   22.9091 C   0  0  0  0  0  0  0  0  0  0  0  0
   -8.2846  -14.4713   22.0411 C   0  0  0  0  0  0  0  0  0  0  0  0
   -8.0007  -15.2115   20.7236 C   0  0  0  0  0  0  0  0  0  0  0  0
   -7.5173  -16.5764   20.9076 N   0  0  0  0  0  0  0  0  0  0  0  0
   -6.7490  -16.7835   22.1334 C   0  0  0  0  0  0  0  0  0  0  0  0
   -6.0134  -15.5309   22.6612 C   0  0  0  0  0  0  0  0  0  0  0  0
   -4.3002   -6.5013   23.3109 H   0  0  0  0  0  0  0  0  0  0  0  0
   -5.5015   -7.0678   22.6356 H   0  0  0  0  0  0  0  0  0  0  0  0
   -4.2837   -6.4637   21.7058 H   0  0  0  0  0  0  0  0  0  0  0  0
   -3.3269   -8.2177   21.7317 H   0  0  0  0  0  0  0  0  0  0  0  0
   -2.6271   -5.8669   23.6077 H   0  0  0  0  0  0  0  0  0  0  0  0
   -2.0396   -6.8371   24.6483 H   0  0  0  0  0  0  0  0  0  0  0  0
   -1.2183   -7.1817   23.4824 H   0  0  0  0  0  0  0  0  0  0  0  0
   -4.5850   -9.6158   22.1170 H   0  0  0  0  0  0  0  0  0  0  0  0
   -3.7042  -10.5134   21.2848 H   0  0  0  0  0  0  0  0  0  0  0  0
   -2.8797   -9.2634   24.4193 H   0  0  0  0  0  0  0  0  0  0  0  0
   -2.0916   -9.9501   24.3095 H   0  0  0  0  0  0  0  0  0  0  0  0
   -3.1451  -12.0296   25.5913 H   0  0  0  0  0  0  0  0  0  0  0  0
   -3.3155  -12.8515   24.1214 H   0  0  0  0  0  0  0  0  0  0  0  0
   -6.2614  -11.5660   23.5911 H   0  0  0  0  0  0  0  0  0  0  0  0
   -7.2628  -15.7901   24.6498 H   0  0  0  0  0  0  0  0  0  0  0  0
   -8.8381  -14.8256   24.4016 H   0  0  0  0  0  0  0  0  0  0  0  0
   -7.9012  -14.7602   25.8028 H   0  0  0  0  0  0  0  0  0  0  0  0
   -6.4608  -13.4986   22.3736 H   0  0  0  0  0  0  0  0  0  0  0  0
   -8.6933  -13.4768   21.8314 H   0  0  0  0  0  0  0  0  0  0  0  0
   -9.0799  -15.0286   22.5421 H   0  0  0  0  0  0  0  0  0  0  0  0
   -7.2567  -14.6483   20.1474 H   0  0  0  0  0  0  0  0  0  0  0  0
   -8.9096  -15.2336   20.1118 H   0  0  0  0  0  0  0  0  0  0  0  0
   -8.2852  -17.2443   20.8595 H   0  0  0  0  0  0  0  0  0  0  0  0
   -6.0163  -17.5775   21.9522 H   0  0  0  0  0  0  0  0  0  0  0  0
   -7.4257  -17.1598   22.9089 H   0  0  0  0  0  0  0  0  0  0  0  0
   -5.2687  -15.2352   21.9089 H   0  0  0  0  0  0  0  0  0  0  0  0
   -5.4364  -15.7783   23.5590 H   0  0  0  0  0  0  0  0  0  0  0  0
  1  2  1  0
  2  3  1  0
  2  4  1  0
  4  5  1  0
  5  6  1  0
  6  7  1  0
  7  8  1  0
  8  9  1  0
  9 10  2  0
  9 11  1  0
 11 12  1  0
 11 13  1  0
 13 14  1  0
 14 15  1  0
 15 16  1  0
 16 17  1  0
 17 18  1  0
  8  4  1  0
 18 13  1  0
  1 19  1  0
  1 20  1  0
  1 21  1  0
  2 22  1  0
  3 23  1  0
  3 24  1  0
  3 25  1  0
  5 26  1  0
  5 27  1  0
  6 28  1  0
  6 29  1  0
  7 30  1  0
  7 31  1  0
  8 32  1  0
 12 33  1  0
 12 34  1  0
 12 35  1  0
 13 36  1  0
 14 37  1  0
 14 38  1  0
 15 39  1  0
 15 40  1  0
 16 41  1  0
 17 42  1  0
 17 43  1  0
 18 44  1  0
 18 45  1  0
M  END
>  <Energy>  (832) 
1167.9691994686407

>  <compound_id>  (832) 
5809

>  <target_id>  (832) 
1

>  <reference_id>  (832) 
9

>  <inspiration_ids>  (832) 
[70, 9]

>  <energy_score>  (832) 
1052.993609383633

>  <distance_score>  (832) 
13.218261574752004

>  <path>  (832) 
/opt/xchem-fragalysis-2/maxwin/BulkDock/SCRATCH/511018/C5809-P9/C5809-P9.minimised.mol

>  <scratch_subdir>  (832) 
/opt/xchem-fragalysis-2/maxwin/BulkDock/SCRATCH/511018/C5809-P9

>  <fragmenstein_runtime>  (832) 
25.414414882659912

>  <fragmenstein_outcome>  (832) 
too moved

>  <fragmenstein_mode>  (832) 
expansion

>  <fragmenstein_error>  (832) 


$$$$
C5821-P70
     RDKit          3D

 47 48  0  0  0  0  0  0  0  0999 V2000
   -7.4323   -6.1080   29.0535 C   0  0  0  0  0  0  0  0  0  0  0  0
   -7.0193   -7.1880   30.0546 C   0  0  0  0  0  0  0  0  0  0  0  0
   -7.6733   -8.4738   29.7925 N   0  0  0  0  0  0  0  0  0  0  0  0
   -7.5085   -9.4201   28.7085 C   0  0  0  0  0  0  0  0  0  0  0  0
   -6.8534   -9.3547   27.7096 O   0  0  0  0  0  0  0  0  0  0  0  0
   -8.3226  -10.7047   29.0494 C   0  0  0  0  0  0  0  0  0  0  0  0
   -8.5929  -11.6599   27.9846 N   0  0  0  0  0  0  0  0  0  0  0  0
   -9.8585  -11.7129   27.4487 N   0  0  0  0  0  0  0  0  0  0  0  0
  -10.1349  -12.9057   27.0895 N   0  0  0  0  0  0  0  0  0  0  0  0
   -9.0576  -13.7274   27.3340 N   0  0  0  0  0  0  0  0  0  0  0  0
   -9.1841  -15.2175   27.3366 C   0  0  0  0  0  0  0  0  0  0  0  0
   -9.9680  -15.6570   28.5760 C   0  0  0  0  0  0  0  0  0  0  0  0
   -9.7869  -15.8611   26.0701 C   0  0  0  0  0  0  0  0  0  0  0  0
   -8.0849  -12.9624   28.0012 C   0  0  0  0  0  0  0  0  0  0  0  0
   -7.0831  -13.3659   28.5701 O   0  0  0  0  0  0  0  0  0  0  0  0
   -7.3176   -6.8464   31.5519 C   0  0  0  0  0  0  0  0  0  0  0  0
   -7.7319   -7.6412   32.2892 O   0  0  0  0  0  0  0  0  0  0  0  0
   -6.8983   -5.3130   31.7422 N   0  0  0  0  0  0  0  0  0  0  0  0
   -6.8444   -4.7238   32.9188 C   0  0  0  0  0  0  0  0  0  0  0  0
   -4.9888   -4.6022   33.0813 C   0  0  0  0  0  0  0  0  0  0  0  0
   -4.7323   -3.2014   32.5798 C   0  0  0  0  0  0  0  0  0  0  0  0
   -6.1030   -2.6186   32.7805 C   0  0  0  0  0  0  0  0  0  0  0  0
   -7.0319   -4.0059   33.1923 C   0  0  0  0  0  0  0  0  0  0  0  0
   -6.8616   -5.1851   29.1901 H   0  0  0  0  0  0  0  0  0  0  0  0
   -7.2774   -6.4513   28.0260 H   0  0  0  0  0  0  0  0  0  0  0  0
   -8.4947   -5.8645   29.1638 H   0  0  0  0  0  0  0  0  0  0  0  0
   -5.9478   -7.3829   29.9668 H   0  0  0  0  0  0  0  0  0  0  0  0
   -8.2440   -8.8986   30.5218 H   0  0  0  0  0  0  0  0  0  0  0  0
   -7.7752  -11.2193   29.8486 H   0  0  0  0  0  0  0  0  0  0  0  0
   -9.2936  -10.4008   29.4607 H   0  0  0  0  0  0  0  0  0  0  0  0
   -8.1616  -15.6000   27.4473 H   0  0  0  0  0  0  0  0  0  0  0  0
  -11.0014  -15.2954   28.5387 H   0  0  0  0  0  0  0  0  0  0  0  0
   -9.5110  -15.2601   29.4890 H   0  0  0  0  0  0  0  0  0  0  0  0
   -9.9911  -16.7486   28.6585 H   0  0  0  0  0  0  0  0  0  0  0  0
   -9.1208  -15.6939   25.2218 H   0  0  0  0  0  0  0  0  0  0  0  0
   -9.8952  -16.9433   26.1960 H   0  0  0  0  0  0  0  0  0  0  0  0
  -10.7696  -15.4383   25.8411 H   0  0  0  0  0  0  0  0  0  0  0  0
   -6.4279   -5.7302   33.5264 H   0  0  0  0  0  0  0  0  0  0  0  0
   -7.7879   -5.5081   33.4589 H   0  0  0  0  0  0  0  0  0  0  0  0
   -4.4912   -5.3846   32.5002 H   0  0  0  0  0  0  0  0  0  0  0  0
   -4.7404   -4.6736   34.1505 H   0  0  0  0  0  0  0  0  0  0  0  0
   -3.9496   -2.6809   33.1370 H   0  0  0  0  0  0  0  0  0  0  0  0
   -4.4627   -3.2099   31.5221 H   0  0  0  0  0  0  0  0  0  0  0  0
   -6.5201   -2.1705   31.8750 H   0  0  0  0  0  0  0  0  0  0  0  0
   -6.1568   -1.9105   33.6132 H   0  0  0  0  0  0  0  0  0  0  0  0
   -7.1125   -4.0665   34.4846 H   0  0  0  0  0  0  0  0  0  0  0  0
   -8.1267   -3.4741   32.9945 H   0  0  0  0  0  0  0  0  0  0  0  0
  1  2  1  0
  2  3  1  0
  3  4  1  0
  4  5  2  0
  4  6  1  0
  6  7  1  0
  7  8  1  0
  8  9  2  0
  9 10  1  0
 10 11  1  0
 11 12  1  0
 11 13  1  0
 10 14  1  0
 14 15  2  0
  2 16  1  0
 16 17  2  0
 16 18  1  0
 18 19  1  0
 19 20  1  0
 20 21  1  0
 21 22  1  0
 22 23  1  0
 14  7  1  0
 23 18  1  0
  1 24  1  0
  1 25  1  0
  1 26  1  0
  2 27  1  0
  3 28  1  0
  6 29  1  0
  6 30  1  0
 11 31  1  0
 12 32  1  0
 12 33  1  0
 12 34  1  0
 13 35  1  0
 13 36  1  0
 13 37  1  0
 19 38  1  0
 19 39  1  0
 20 40  1  0
 20 41  1  0
 21 42  1  0
 21 43  1  0
 22 44  1  0
 22 45  1  0
 23 46  1  0
 23 47  1  0
M  END
>  <Energy>  (833) 
786.71614447424042

>  <compound_id>  (833) 
5821

>  <target_id>  (833) 
1

>  <reference_id>  (833) 
70

>  <inspiration_ids>  (833) 
[70, 9]

>  <energy_score>  (833) 
743.7528848308693

>  <distance_score>  (833) 
13.351712964345754

>  <path>  (833) 
/opt/xchem-fragalysis-2/maxwin/BulkDock/SCRATCH/511018/C5821-P70/C5821-P70.minimised.mol

>  <scratch_subdir>  (833) 
/opt/xchem-fragalysis-2/maxwin/BulkDock/SCRATCH/511018/C5821-P70

>  <fragmenstein_runtime>  (833) 
19.560648918151855

>  <fragmenstein_outcome>  (833) 
too moved

>  <fragmenstein_mode>  (833) 
expansion

>  <fragmenstein_error>  (833) 


$$$$
C5821-P9
     RDKit          3D

 47 48  0  0  0  0  0  0  0  0999 V2000
   -2.3940   -4.7789   24.1663 C   0  0  0  0  0  0  0  0  0  0  0  0
   -2.8242   -3.2774   23.8330 C   0  0  0  0  0  0  0  0  0  0  0  0
   -3.8238   -3.4391   22.2174 N   0  0  0  0  0  0  0  0  0  0  0  0
   -4.5308   -4.7836   21.4932 C   0  0  0  0  0  0  0  0  0  0  0  0
   -4.4596   -5.9544   21.8273 O   0  0  0  0  0  0  0  0  0  0  0  0
   -5.5710   -4.6255   20.2644 C   0  0  0  0  0  0  0  0  0  0  0  0
   -6.6808   -6.0276   19.8284 N   0  0  0  0  0  0  0  0  0  0  0  0
   -8.0673   -6.7465   20.5377 N   0  0  0  0  0  0  0  0  0  0  0  0
   -8.6308   -7.7985   19.8719 N   0  0  0  0  0  0  0  0  0  0  0  0
   -7.9811   -8.5022   18.7826 N   0  0  0  0  0  0  0  0  0  0  0  0
   -7.8075  -10.5110   18.8037 C   0  0  0  0  0  0  0  0  0  0  0  0
   -8.6646  -12.2087   18.6717 C   0  0  0  0  0  0  0  0  0  0  0  0
   -6.7676  -11.2244   17.4290 C   0  0  0  0  0  0  0  0  0  0  0  0
   -6.9928   -7.0981   18.1876 C   0  0  0  0  0  0  0  0  0  0  0  0
   -6.4540   -6.9637   17.0974 O   0  0  0  0  0  0  0  0  0  0  0  0
   -3.1482   -2.2567   25.5724 C   0  0  0  0  0  0  0  0  0  0  0  0
   -4.2294   -1.9615   25.6362 O   0  0  0  0  0  0  0  0  0  0  0  0
   -1.8233   -1.9169   26.6059 N   0  0  0  0  0  0  0  0  0  0  0  0
   -1.6411   -1.3470   27.7699 C   0  0  0  0  0  0  0  0  0  0  0  0
   -1.5894   -2.5313   29.1837 C   0  0  0  0  0  0  0  0  0  0  0  0
   -0.9023   -1.6968   30.2309 C   0  0  0  0  0  0  0  0  0  0  0  0
   -0.9823   -0.3558   29.5568 C   0  0  0  0  0  0  0  0  0  0  0  0
   -1.9954   -0.6972   28.1073 C   0  0  0  0  0  0  0  0  0  0  0  0
   -2.8730   -5.5988   23.6734 H   0  0  0  0  0  0  0  0  0  0  0  0
   -2.5354   -5.1087   25.1856 H   0  0  0  0  0  0  0  0  0  0  0  0
   -1.3243   -4.9139   24.0018 H   0  0  0  0  0  0  0  0  0  0  0  0
   -2.0338   -2.7454   23.3007 H   0  0  0  0  0  0  0  0  0  0  0  0
   -4.0008   -2.6261   21.6570 H   0  0  0  0  0  0  0  0  0  0  0  0
   -5.0843   -4.2575   19.3574 H   0  0  0  0  0  0  0  0  0  0  0  0
   -6.2991   -3.9148   20.6471 H   0  0  0  0  0  0  0  0  0  0  0  0
   -7.3757  -10.6695   19.7167 H   0  0  0  0  0  0  0  0  0  0  0  0
   -9.6799  -12.2405   19.0175 H   0  0  0  0  0  0  0  0  0  0  0  0
   -8.7309  -12.5925   17.6420 H   0  0  0  0  0  0  0  0  0  0  0  0
   -8.0271  -12.9429   19.1637 H   0  0  0  0  0  0  0  0  0  0  0  0
   -6.1877  -10.4562   16.9112 H   0  0  0  0  0  0  0  0  0  0  0  0
   -6.1069  -11.9961   17.8418 H   0  0  0  0  0  0  0  0  0  0  0  0
   -7.3317  -11.7460   16.6489 H   0  0  0  0  0  0  0  0  0  0  0  0
   -0.6393   -2.0236   27.7217 H   0  0  0  0  0  0  0  0  0  0  0  0
   -0.4897   -0.6903   27.3786 H   0  0  0  0  0  0  0  0  0  0  0  0
   -1.0586   -3.4573   28.9262 H   0  0  0  0  0  0  0  0  0  0  0  0
   -2.6081   -2.7705   29.4741 H   0  0  0  0  0  0  0  0  0  0  0  0
   -1.4241   -1.7245   31.1912 H   0  0  0  0  0  0  0  0  0  0  0  0
    0.1361   -2.0040   30.3846 H   0  0  0  0  0  0  0  0  0  0  0  0
   -1.5203    0.3843   30.1552 H   0  0  0  0  0  0  0  0  0  0  0  0
   -0.0065    0.0436   29.2569 H   0  0  0  0  0  0  0  0  0  0  0  0
   -2.1381    0.3989   27.6024 H   0  0  0  0  0  0  0  0  0  0  0  0
   -3.0915   -0.7276   28.5261 H   0  0  0  0  0  0  0  0  0  0  0  0
  1  2  1  0
  2  3  1  0
  3  4  1  0
  4  5  2  0
  4  6  1  0
  6  7  1  0
  7  8  1  0
  8  9  2  0
  9 10  1  0
 10 11  1  0
 11 12  1  0
 11 13  1  0
 10 14  1  0
 14 15  2  0
  2 16  1  0
 16 17  2  0
 16 18  1  0
 18 19  1  0
 19 20  1  0
 20 21  1  0
 21 22  1  0
 22 23  1  0
 14  7  1  0
 23 18  1  0
  1 24  1  0
  1 25  1  0
  1 26  1  0
  2 27  1  0
  3 28  1  0
  6 29  1  0
  6 30  1  0
 11 31  1  0
 12 32  1  0
 12 33  1  0
 12 34  1  0
 13 35  1  0
 13 36  1  0
 13 37  1  0
 19 38  1  0
 19 39  1  0
 20 40  1  0
 20 41  1  0
 21 42  1  0
 21 43  1  0
 22 44  1  0
 22 45  1  0
 23 46  1  0
 23 47  1  0
M  END
>  <Energy>  (834) 
1417.5750361975315

>  <compound_id>  (834) 
5821

>  <target_id>  (834) 
1

>  <reference_id>  (834) 
9

>  <inspiration_ids>  (834) 
[70, 9]

>  <energy_score>  (834) 
1374.6117765541728

>  <distance_score>  (834) 
10.582713677963058

>  <path>  (834) 
/opt/xchem-fragalysis-2/maxwin/BulkDock/SCRATCH/511018/C5821-P9/C5821-P9.minimised.mol

>  <scratch_subdir>  (834) 
/opt/xchem-fragalysis-2/maxwin/BulkDock/SCRATCH/511018/C5821-P9

>  <fragmenstein_runtime>  (834) 
16.903022050857544

>  <fragmenstein_outcome>  (834) 
too moved

>  <fragmenstein_mode>  (834) 
expansion

>  <fragmenstein_error>  (834) 


$$$$
C5823-P70
     RDKit          3D

 53 54  0  0  0  0  0  0  0  0999 V2000
   -8.4893   -2.1685   25.6340 C   0  0  0  0  0  0  0  0  0  0  0  0
   -9.0477   -3.5089   25.1958 C   0  0  0  0  0  0  0  0  0  0  0  0
   -9.0257   -3.6533   23.6743 C   0  0  0  0  0  0  0  0  0  0  0  0
   -9.6263   -4.8930   23.2290 N   0  0  0  0  0  0  0  0  0  0  0  0
   -9.0294   -5.8741   22.4896 C   0  0  0  0  0  0  0  0  0  0  0  0
   -9.8352   -6.9051   22.2871 N   0  0  0  0  0  0  0  0  0  0  0  0
  -11.0221   -6.5593   22.9201 C   0  0  0  0  0  0  0  0  0  0  0  0
  -12.5111   -7.5218   23.0080 S   0  0  0  0  0  0  0  0  0  0  0  0
  -12.7815   -7.5844   24.4312 O   0  0  0  0  0  0  0  0  0  0  0  0
  -13.3690   -6.7867   22.1053 O   0  0  0  0  0  0  0  0  0  0  0  0
  -12.4196   -9.2178   22.4892 N   0  0  0  0  0  0  0  0  0  0  0  0
  -13.6875  -10.1436   22.7190 C   0  0  0  0  0  0  0  0  0  0  0  0
  -13.9765  -11.4378   21.7413 C   0  0  0  0  0  0  0  0  0  0  0  0
  -13.6257  -12.9687   22.1700 C   0  0  0  0  0  0  0  0  0  0  0  0
  -14.5369  -14.2296   21.7394 C   0  0  0  0  0  0  0  0  0  0  0  0
  -14.3600  -14.9530   20.3639 C   0  0  0  0  0  0  0  0  0  0  0  0
  -15.1924  -16.1769   20.2211 N   0  0  0  0  0  0  0  0  0  0  0  0
  -15.7305  -16.3576   18.8616 C   0  0  0  0  0  0  0  0  0  0  0  0
  -14.6918  -16.7039   17.7943 C   0  0  0  0  0  0  0  0  0  0  0  0
  -13.7194  -17.7813   18.2448 C   0  0  0  0  0  0  0  0  0  0  0  0
  -14.1067  -18.3891   19.5801 C   0  0  0  0  0  0  0  0  0  0  0  0
  -14.4876  -17.3856   20.6738 C   0  0  0  0  0  0  0  0  0  0  0  0
  -10.9105   -5.2858   23.4654 C   0  0  0  0  0  0  0  0  0  0  0  0
   -9.0559   -1.3407   25.1962 H   0  0  0  0  0  0  0  0  0  0  0  0
   -8.5380   -2.0749   26.7233 H   0  0  0  0  0  0  0  0  0  0  0  0
   -7.4450   -2.0715   25.3289 H   0  0  0  0  0  0  0  0  0  0  0  0
   -8.4664   -4.3175   25.6554 H   0  0  0  0  0  0  0  0  0  0  0  0
  -10.0711   -3.6013   25.5774 H   0  0  0  0  0  0  0  0  0  0  0  0
   -9.5809   -2.8410   23.1914 H   0  0  0  0  0  0  0  0  0  0  0  0
   -7.9953   -3.6297   23.3038 H   0  0  0  0  0  0  0  0  0  0  0  0
   -8.0079   -5.7996   22.1389 H   0  0  0  0  0  0  0  0  0  0  0  0
  -11.6764   -9.6099   23.0703 H   0  0  0  0  0  0  0  0  0  0  0  0
  -13.6548  -10.4901   23.7573 H   0  0  0  0  0  0  0  0  0  0  0  0
  -14.5522   -9.4794   22.5979 H   0  0  0  0  0  0  0  0  0  0  0  0
  -15.0702  -11.4444   21.6328 H   0  0  0  0  0  0  0  0  0  0  0  0
  -13.5859  -11.2327   20.7436 H   0  0  0  0  0  0  0  0  0  0  0  0
  -12.5839  -13.1849   21.9239 H   0  0  0  0  0  0  0  0  0  0  0  0
  -13.6743  -12.9546   23.2674 H   0  0  0  0  0  0  0  0  0  0  0  0
  -14.3648  -14.9862   22.5175 H   0  0  0  0  0  0  0  0  0  0  0  0
  -15.5850  -13.9211   21.8415 H   0  0  0  0  0  0  0  0  0  0  0  0
  -13.3095  -15.2069   20.2123 H   0  0  0  0  0  0  0  0  0  0  0  0
  -14.6626  -14.2233   19.6053 H   0  0  0  0  0  0  0  0  0  0  0  0
  -16.2812  -15.4588   18.5570 H   0  0  0  0  0  0  0  0  0  0  0  0
  -16.4904  -17.1502   18.8947 H   0  0  0  0  0  0  0  0  0  0  0  0
  -15.2104  -17.0299   16.8844 H   0  0  0  0  0  0  0  0  0  0  0  0
  -14.1282  -15.8049   17.5163 H   0  0  0  0  0  0  0  0  0  0  0  0
  -12.7164  -17.3507   18.2957 H   0  0  0  0  0  0  0  0  0  0  0  0
  -13.6883  -18.5697   17.4900 H   0  0  0  0  0  0  0  0  0  0  0  0
  -14.9909  -18.9933   19.4093 H   0  0  0  0  0  0  0  0  0  0  0  0
  -13.3251  -19.0659   19.9363 H   0  0  0  0  0  0  0  0  0  0  0  0
  -15.1540  -17.9037   21.3760 H   0  0  0  0  0  0  0  0  0  0  0  0
  -13.6185  -17.1218   21.2802 H   0  0  0  0  0  0  0  0  0  0  0  0
  -11.6278   -4.6825   24.0053 H   0  0  0  0  0  0  0  0  0  0  0  0
  1  2  1  0
  2  3  1  0
  3  4  1  0
  4  5  1  0
  5  6  2  0
  6  7  1  0
  7  8  1  0
  8  9  2  0
  8 10  2  0
  8 11  1  0
 11 12  1  0
 12 13  1  0
 13 14  1  0
 14 15  1  0
 15 16  1  0
 16 17  1  0
 17 18  1  0
 18 19  1  0
 19 20  1  0
 20 21  1  0
 21 22  1  0
  7 23  2  0
 23  4  1  0
 22 17  1  0
  1 24  1  0
  1 25  1  0
  1 26  1  0
  2 27  1  0
  2 28  1  0
  3 29  1  0
  3 30  1  0
  5 31  1  0
 11 32  1  0
 12 33  1  0
 12 34  1  0
 13 35  1  0
 13 36  1  0
 14 37  1  0
 14 38  1  0
 15 39  1  0
 15 40  1  0
 16 41  1  0
 16 42  1  0
 18 43  1  0
 18 44  1  0
 19 45  1  0
 19 46  1  0
 20 47  1  0
 20 48  1  0
 21 49  1  0
 21 50  1  0
 22 51  1  0
 22 52  1  0
 23 53  1  0
M  END
>  <Energy>  (835) 
68.22042812494287

>  <compound_id>  (835) 
5823

>  <target_id>  (835) 
1

>  <reference_id>  (835) 
70

>  <inspiration_ids>  (835) 
[70, 9]

>  <energy_score>  (835) 
-158.64083490312635

>  <distance_score>  (835) 
12.479047303675106

>  <path>  (835) 
/opt/xchem-fragalysis-2/maxwin/BulkDock/SCRATCH/511018/C5823-P70/C5823-P70.minimised.mol

>  <scratch_subdir>  (835) 
/opt/xchem-fragalysis-2/maxwin/BulkDock/SCRATCH/511018/C5823-P70

>  <fragmenstein_runtime>  (835) 
30.231305360794067

>  <fragmenstein_outcome>  (835) 
too moved

>  <fragmenstein_mode>  (835) 
expansion

>  <fragmenstein_error>  (835) 


$$$$
C5823-P9
     RDKit          3D

 53 54  0  0  0  0  0  0  0  0999 V2000
   -6.6180   -4.6900   23.7673 C   0  0  0  0  0  0  0  0  0  0  0  0
   -6.8448   -4.1843   25.1834 C   0  0  0  0  0  0  0  0  0  0  0  0
   -8.2342   -3.5758   25.3816 C   0  0  0  0  0  0  0  0  0  0  0  0
   -9.2798   -4.5772   25.4533 N   0  0  0  0  0  0  0  0  0  0  0  0
   -9.5846   -5.3341   26.5501 C   0  0  0  0  0  0  0  0  0  0  0  0
  -10.5302   -6.2173   26.2902 N   0  0  0  0  0  0  0  0  0  0  0  0
  -10.8788   -6.0008   24.9595 C   0  0  0  0  0  0  0  0  0  0  0  0
  -12.0964   -6.9619   24.0535 S   0  0  0  0  0  0  0  0  0  0  0  0
  -13.3595   -6.3868   24.4626 O   0  0  0  0  0  0  0  0  0  0  0  0
  -11.5952   -6.8625   22.6968 O   0  0  0  0  0  0  0  0  0  0  0  0
  -12.1197   -8.6519   24.5322 N   0  0  0  0  0  0  0  0  0  0  0  0
  -13.3890   -9.6137   24.4376 C   0  0  0  0  0  0  0  0  0  0  0  0
  -13.2477  -10.9291   23.5042 C   0  0  0  0  0  0  0  0  0  0  0  0
  -13.9411  -12.4407   23.7522 C   0  0  0  0  0  0  0  0  0  0  0  0
  -13.8667  -13.5450   22.5435 C   0  0  0  0  0  0  0  0  0  0  0  0
  -14.2830  -15.0599   22.8321 C   0  0  0  0  0  0  0  0  0  0  0  0
  -14.8324  -15.9198   21.7354 N   0  0  0  0  0  0  0  0  0  0  0  0
  -15.0436  -17.3186   22.1319 C   0  0  0  0  0  0  0  0  0  0  0  0
  -15.8728  -18.1056   21.0967 C   0  0  0  0  0  0  0  0  0  0  0  0
  -15.5358  -17.7748   19.6457 C   0  0  0  0  0  0  0  0  0  0  0  0
  -14.1878  -17.0949   19.5562 C   0  0  0  0  0  0  0  0  0  0  0  0
  -14.1360  -15.8351   20.4473 C   0  0  0  0  0  0  0  0  0  0  0  0
  -10.1195   -4.9568   24.4433 C   0  0  0  0  0  0  0  0  0  0  0  0
   -7.3791   -5.4167   23.4777 H   0  0  0  0  0  0  0  0  0  0  0  0
   -5.6361   -5.1667   23.6878 H   0  0  0  0  0  0  0  0  0  0  0  0
   -6.6506   -3.8737   23.0430 H   0  0  0  0  0  0  0  0  0  0  0  0
   -6.0869   -3.4261   25.4028 H   0  0  0  0  0  0  0  0  0  0  0  0
   -6.6836   -5.0070   25.8900 H   0  0  0  0  0  0  0  0  0  0  0  0
   -8.4851   -2.8758   24.5773 H   0  0  0  0  0  0  0  0  0  0  0  0
   -8.2668   -3.0195   26.3258 H   0  0  0  0  0  0  0  0  0  0  0  0
   -9.0823   -5.2136   27.5013 H   0  0  0  0  0  0  0  0  0  0  0  0
  -11.8361   -8.6276   25.5181 H   0  0  0  0  0  0  0  0  0  0  0  0
  -14.2394   -9.0135   24.0973 H   0  0  0  0  0  0  0  0  0  0  0  0
  -13.5908   -9.9437   25.4628 H   0  0  0  0  0  0  0  0  0  0  0  0
  -12.1821  -11.1052   23.3311 H   0  0  0  0  0  0  0  0  0  0  0  0
  -13.7383  -10.5747   22.5955 H   0  0  0  0  0  0  0  0  0  0  0  0
  -15.0008  -12.2688   23.9746 H   0  0  0  0  0  0  0  0  0  0  0  0
  -13.4866  -12.8632   24.6528 H   0  0  0  0  0  0  0  0  0  0  0  0
  -14.4880  -13.1554   21.7292 H   0  0  0  0  0  0  0  0  0  0  0  0
  -12.8266  -13.5562   22.2091 H   0  0  0  0  0  0  0  0  0  0  0  0
  -13.4016  -15.5524   23.2634 H   0  0  0  0  0  0  0  0  0  0  0  0
  -15.0446  -15.0266   23.6207 H   0  0  0  0  0  0  0  0  0  0  0  0
  -14.0804  -17.8179   22.2915 H   0  0  0  0  0  0  0  0  0  0  0  0
  -15.5777  -17.3606   23.0891 H   0  0  0  0  0  0  0  0  0  0  0  0
  -16.9406  -17.9124   21.2595 H   0  0  0  0  0  0  0  0  0  0  0  0
  -15.7269  -19.1745   21.2781 H   0  0  0  0  0  0  0  0  0  0  0  0
  -16.3044  -17.1026   19.2433 H   0  0  0  0  0  0  0  0  0  0  0  0
  -15.5566  -18.6725   19.0232 H   0  0  0  0  0  0  0  0  0  0  0  0
  -13.9948  -16.8184   18.5172 H   0  0  0  0  0  0  0  0  0  0  0  0
  -13.4111  -17.8071   19.8526 H   0  0  0  0  0  0  0  0  0  0  0  0
  -13.0924  -15.5924   20.6236 H   0  0  0  0  0  0  0  0  0  0  0  0
  -14.5847  -15.0039   19.8920 H   0  0  0  0  0  0  0  0  0  0  0  0
  -10.0941   -4.5159   23.4557 H   0  0  0  0  0  0  0  0  0  0  0  0
  1  2  1  0
  2  3  1  0
  3  4  1  0
  4  5  1  0
  5  6  2  0
  6  7  1  0
  7  8  1  0
  8  9  2  0
  8 10  2  0
  8 11  1  0
 11 12  1  0
 12 13  1  0
 13 14  1  0
 14 15  1  0
 15 16  1  0
 16 17  1  0
 17 18  1  0
 18 19  1  0
 19 20  1  0
 20 21  1  0
 21 22  1  0
  7 23  2  0
 23  4  1  0
 22 17  1  0
  1 24  1  0
  1 25  1  0
  1 26  1  0
  2 27  1  0
  2 28  1  0
  3 29  1  0
  3 30  1  0
  5 31  1  0
 11 32  1  0
 12 33  1  0
 12 34  1  0
 13 35  1  0
 13 36  1  0
 14 37  1  0
 14 38  1  0
 15 39  1  0
 15 40  1  0
 16 41  1  0
 16 42  1  0
 18 43  1  0
 18 44  1  0
 19 45  1  0
 19 46  1  0
 20 47  1  0
 20 48  1  0
 21 49  1  0
 21 50  1  0
 22 51  1  0
 22 52  1  0
 23 53  1  0
M  END
>  <Energy>  (836) 
68.154713752245357

>  <compound_id>  (836) 
5823

>  <target_id>  (836) 
1

>  <reference_id>  (836) 
9

>  <inspiration_ids>  (836) 
[70, 9]

>  <energy_score>  (836) 
-158.7065492758221

>  <distance_score>  (836) 
12.557881958498715

>  <path>  (836) 
/opt/xchem-fragalysis-2/maxwin/BulkDock/SCRATCH/511018/C5823-P9/C5823-P9.minimised.mol

>  <scratch_subdir>  (836) 
/opt/xchem-fragalysis-2/maxwin/BulkDock/SCRATCH/511018/C5823-P9

>  <fragmenstein_runtime>  (836) 
27.69337296485901

>  <fragmenstein_outcome>  (836) 
too moved

>  <fragmenstein_mode>  (836) 
expansion

>  <fragmenstein_error>  (836) 


$$$$
C5835-P70
     RDKit          3D

 53 54  0  0  0  0  0  0  0  0999 V2000
  -13.5380  -16.5024   18.3118 C   0  0  0  0  0  0  0  0  0  0  0  0
  -14.1194  -16.5792   19.7199 C   0  0  0  0  0  0  0  0  0  0  0  0
  -13.9960  -17.9786   20.4675 C   0  0  0  0  0  0  0  0  0  0  0  0
  -13.5108  -19.3000   19.9259 N   0  0  0  0  0  0  0  0  0  0  0  0
  -13.5901  -19.8720   18.5886 C   0  0  0  0  0  0  0  0  0  0  0  0
  -13.9884  -19.3976   17.5625 O   0  0  0  0  0  0  0  0  0  0  0  0
  -13.1254  -21.6452   18.4773 C   0  0  0  0  0  0  0  0  0  0  0  0
  -13.8646  -22.9797   17.4173 N   0  0  0  0  0  0  0  0  0  0  0  0
  -14.4347  -23.1304   16.0327 C   0  0  0  0  0  0  0  0  0  0  0  0
  -15.6371  -24.0024   15.6401 C   0  0  0  0  0  0  0  0  0  0  0  0
  -15.3079  -25.4475   15.9546 C   0  0  0  0  0  0  0  0  0  0  0  0
  -14.0564  -25.5414   16.8374 C   0  0  0  0  0  0  0  0  0  0  0  0
  -13.8416  -24.3568   17.9542 C   0  0  0  0  0  0  0  0  0  0  0  0
  -13.7689  -15.3373   20.5122 N   0  0  0  0  0  0  0  0  0  0  0  0
  -13.9994  -15.0003   21.8968 C   0  0  0  0  0  0  0  0  0  0  0  0
  -14.4566  -15.6514   22.7929 O   0  0  0  0  0  0  0  0  0  0  0  0
  -13.6921  -13.5317   22.2203 C   0  0  0  0  0  0  0  0  0  0  0  0
  -13.7224  -12.9557   23.4912 C   0  0  0  0  0  0  0  0  0  0  0  0
  -13.5183  -11.6063   23.3475 N   0  0  0  0  0  0  0  0  0  0  0  0
  -13.5303  -10.6327   24.4336 C   0  0  0  0  0  0  0  0  0  0  0  0
  -14.8934  -10.5913   25.1313 C   0  0  0  0  0  0  0  0  0  0  0  0
  -13.1373   -9.2156   24.0050 C   0  0  0  0  0  0  0  0  0  0  0  0
  -13.4078  -11.3798   22.0114 C   0  0  0  0  0  0  0  0  0  0  0  0
  -13.4253  -12.5054   21.3147 N   0  0  0  0  0  0  0  0  0  0  0  0
  -13.4638  -15.4650   17.9671 H   0  0  0  0  0  0  0  0  0  0  0  0
  -12.5451  -16.9468   18.2351 H   0  0  0  0  0  0  0  0  0  0  0  0
  -14.1918  -17.0162   17.6022 H   0  0  0  0  0  0  0  0  0  0  0  0
  -15.2020  -16.4373   19.5875 H   0  0  0  0  0  0  0  0  0  0  0  0
  -13.5622  -17.8510   21.4615 H   0  0  0  0  0  0  0  0  0  0  0  0
  -15.0388  -18.2305   20.7141 H   0  0  0  0  0  0  0  0  0  0  0  0
  -13.0440  -19.9530   20.5362 H   0  0  0  0  0  0  0  0  0  0  0  0
  -12.0720  -21.6064   18.6512 H   0  0  0  0  0  0  0  0  0  0  0  0
  -13.1350  -22.1131   19.4704 H   0  0  0  0  0  0  0  0  0  0  0  0
  -14.4744  -22.2559   15.4076 H   0  0  0  0  0  0  0  0  0  0  0  0
  -13.7416  -23.7873   15.5421 H   0  0  0  0  0  0  0  0  0  0  0  0
  -15.7965  -23.9196   14.5558 H   0  0  0  0  0  0  0  0  0  0  0  0
  -16.5751  -23.6659   16.0783 H   0  0  0  0  0  0  0  0  0  0  0  0
  -16.1645  -25.9419   16.4266 H   0  0  0  0  0  0  0  0  0  0  0  0
  -15.1276  -26.0038   15.0260 H   0  0  0  0  0  0  0  0  0  0  0  0
  -14.1182  -26.5301   17.2689 H   0  0  0  0  0  0  0  0  0  0  0  0
  -13.1747  -25.6110   16.1845 H   0  0  0  0  0  0  0  0  0  0  0  0
  -14.4389  -24.6185   18.8251 H   0  0  0  0  0  0  0  0  0  0  0  0
  -12.9255  -24.2871   18.5152 H   0  0  0  0  0  0  0  0  0  0  0  0
  -13.2864  -14.5605   20.0570 H   0  0  0  0  0  0  0  0  0  0  0  0
  -13.9083  -13.4128   24.4539 H   0  0  0  0  0  0  0  0  0  0  0  0
  -12.7764  -10.9901   25.1475 H   0  0  0  0  0  0  0  0  0  0  0  0
  -15.1602  -11.5678   25.5491 H   0  0  0  0  0  0  0  0  0  0  0  0
  -15.6870  -10.3023   24.4330 H   0  0  0  0  0  0  0  0  0  0  0  0
  -14.8867   -9.8718   25.9571 H   0  0  0  0  0  0  0  0  0  0  0  0
  -13.8962   -8.7694   23.3523 H   0  0  0  0  0  0  0  0  0  0  0  0
  -13.0250   -8.5654   24.8793 H   0  0  0  0  0  0  0  0  0  0  0  0
  -12.1888   -9.2123   23.4607 H   0  0  0  0  0  0  0  0  0  0  0  0
  -13.3099  -10.3932   21.5781 H   0  0  0  0  0  0  0  0  0  0  0  0
  1  2  1  0
  2  3  1  0
  3  4  1  0
  4  5  1  0
  5  6  2  0
  5  7  1  0
  7  8  1  0
  8  9  1  0
  9 10  1  0
 10 11  1  0
 11 12  1  0
 12 13  1  0
  2 14  1  0
 14 15  1  0
 15 16  2  0
 15 17  1  0
 17 18  2  0
 18 19  1  0
 19 20  1  0
 20 21  1  0
 20 22  1  0
 19 23  1  0
 23 24  2  0
 13  8  1  0
 24 17  1  0
  1 25  1  0
  1 26  1  0
  1 27  1  0
  2 28  1  0
  3 29  1  0
  3 30  1  0
  4 31  1  0
  7 32  1  0
  7 33  1  0
  9 34  1  0
  9 35  1  0
 10 36  1  0
 10 37  1  0
 11 38  1  0
 11 39  1  0
 12 40  1  0
 12 41  1  0
 13 42  1  0
 13 43  1  0
 14 44  1  0
 18 45  1  0
 20 46  1  0
 21 47  1  0
 21 48  1  0
 21 49  1  0
 22 50  1  0
 22 51  1  0
 22 52  1  0
 23 53  1  0
M  END
>  <Energy>  (837) 
245.86827670466079

>  <compound_id>  (837) 
5835

>  <target_id>  (837) 
1

>  <reference_id>  (837) 
70

>  <inspiration_ids>  (837) 
[70, 9]

>  <energy_score>  (837) 
137.0390894196746

>  <distance_score>  (837) 
14.095050454779368

>  <path>  (837) 
/opt/xchem-fragalysis-2/maxwin/BulkDock/SCRATCH/511018/C5835-P70/C5835-P70.minimised.mol

>  <scratch_subdir>  (837) 
/opt/xchem-fragalysis-2/maxwin/BulkDock/SCRATCH/511018/C5835-P70

>  <fragmenstein_runtime>  (837) 
57.333595275878906

>  <fragmenstein_outcome>  (837) 
too moved

>  <fragmenstein_mode>  (837) 
expansion

>  <fragmenstein_error>  (837) 


$$$$
C5835-P9
     RDKit          3D

 53 54  0  0  0  0  0  0  0  0999 V2000
  -11.4433   -9.4405   16.9056 C   0  0  0  0  0  0  0  0  0  0  0  0
  -10.2912   -8.8215   16.1127 C   0  0  0  0  0  0  0  0  0  0  0  0
   -9.4007   -9.9293   15.4632 C   0  0  0  0  0  0  0  0  0  0  0  0
  -10.1179  -10.8714   14.5779 N   0  0  0  0  0  0  0  0  0  0  0  0
   -9.6679  -11.6104   13.4052 C   0  0  0  0  0  0  0  0  0  0  0  0
   -8.6236  -11.5797   12.8156 O   0  0  0  0  0  0  0  0  0  0  0  0
  -10.8395  -12.4986   12.8207 C   0  0  0  0  0  0  0  0  0  0  0  0
  -10.5688  -13.9565   12.6024 N   0  0  0  0  0  0  0  0  0  0  0  0
  -10.2321  -14.6379   13.8433 C   0  0  0  0  0  0  0  0  0  0  0  0
  -10.0051  -16.1386   13.6927 C   0  0  0  0  0  0  0  0  0  0  0  0
   -8.9883  -16.4300   12.5953 C   0  0  0  0  0  0  0  0  0  0  0  0
   -9.4022  -15.7300   11.3107 C   0  0  0  0  0  0  0  0  0  0  0  0
   -9.5797  -14.2263   11.5530 C   0  0  0  0  0  0  0  0  0  0  0  0
   -9.5884   -7.8596   16.9858 N   0  0  0  0  0  0  0  0  0  0  0  0
   -8.7421   -6.7472   16.6695 C   0  0  0  0  0  0  0  0  0  0  0  0
   -8.3233   -6.3598   15.6191 O   0  0  0  0  0  0  0  0  0  0  0  0
   -8.4542   -5.9264   17.8973 C   0  0  0  0  0  0  0  0  0  0  0  0
   -7.6812   -4.7730   17.9546 C   0  0  0  0  0  0  0  0  0  0  0  0
   -7.7462   -4.3265   19.2446 N   0  0  0  0  0  0  0  0  0  0  0  0
   -7.1479   -3.1152   19.7795 C   0  0  0  0  0  0  0  0  0  0  0  0
   -5.6243   -3.2074   19.8172 C   0  0  0  0  0  0  0  0  0  0  0  0
   -7.6096   -1.8638   19.0320 C   0  0  0  0  0  0  0  0  0  0  0  0
   -8.5211   -5.2078   19.9445 C   0  0  0  0  0  0  0  0  0  0  0  0
   -8.9675   -6.1816   19.1728 N   0  0  0  0  0  0  0  0  0  0  0  0
  -12.1189  -10.0119   16.2628 H   0  0  0  0  0  0  0  0  0  0  0  0
  -12.0405   -8.6650   17.3986 H   0  0  0  0  0  0  0  0  0  0  0  0
  -11.0610  -10.1093   17.6825 H   0  0  0  0  0  0  0  0  0  0  0  0
  -10.7153   -8.2224   15.2973 H   0  0  0  0  0  0  0  0  0  0  0  0
   -8.9296  -10.5334   16.2466 H   0  0  0  0  0  0  0  0  0  0  0  0
   -8.5936   -9.4748   14.8785 H   0  0  0  0  0  0  0  0  0  0  0  0
  -11.0300  -11.2117   14.8530 H   0  0  0  0  0  0  0  0  0  0  0  0
  -11.1292  -12.0423   11.8654 H   0  0  0  0  0  0  0  0  0  0  0  0
  -11.7275  -12.4193   13.4579 H   0  0  0  0  0  0  0  0  0  0  0  0
   -9.3256  -14.1939   14.2625 H   0  0  0  0  0  0  0  0  0  0  0  0
  -11.0644  -14.4891   14.5364 H   0  0  0  0  0  0  0  0  0  0  0  0
  -10.9676  -16.6056   13.4769 H   0  0  0  0  0  0  0  0  0  0  0  0
   -9.6557  -16.5497   14.6456 H   0  0  0  0  0  0  0  0  0  0  0  0
   -8.8838  -17.5004   12.4115 H   0  0  0  0  0  0  0  0  0  0  0  0
   -8.0009  -16.0686   12.9091 H   0  0  0  0  0  0  0  0  0  0  0  0
   -8.6388  -15.8894   10.5407 H   0  0  0  0  0  0  0  0  0  0  0  0
  -10.3378  -16.1561   10.9289 H   0  0  0  0  0  0  0  0  0  0  0  0
   -8.6023  -13.8003   11.8057 H   0  0  0  0  0  0  0  0  0  0  0  0
   -9.9054  -13.7630   10.6143 H   0  0  0  0  0  0  0  0  0  0  0  0
   -9.8077   -7.8362   17.9798 H   0  0  0  0  0  0  0  0  0  0  0  0
   -7.1332   -4.2568   17.1774 H   0  0  0  0  0  0  0  0  0  0  0  0
   -7.5115   -3.0389   20.8101 H   0  0  0  0  0  0  0  0  0  0  0  0
   -5.1969   -2.3082   20.2701 H   0  0  0  0  0  0  0  0  0  0  0  0
   -5.2998   -4.0686   20.4108 H   0  0  0  0  0  0  0  0  0  0  0  0
   -5.1994   -3.3138   18.8132 H   0  0  0  0  0  0  0  0  0  0  0  0
   -8.7032   -1.8022   19.0106 H   0  0  0  0  0  0  0  0  0  0  0  0
   -7.2548   -1.8570   17.9957 H   0  0  0  0  0  0  0  0  0  0  0  0
   -7.2306   -0.9600   19.5210 H   0  0  0  0  0  0  0  0  0  0  0  0
   -8.7307   -5.0985   21.0012 H   0  0  0  0  0  0  0  0  0  0  0  0
  1  2  1  0
  2  3  1  0
  3  4  1  0
  4  5  1  0
  5  6  2  0
  5  7  1  0
  7  8  1  0
  8  9  1  0
  9 10  1  0
 10 11  1  0
 11 12  1  0
 12 13  1  0
  2 14  1  0
 14 15  1  0
 15 16  2  0
 15 17  1  0
 17 18  2  0
 18 19  1  0
 19 20  1  0
 20 21  1  0
 20 22  1  0
 19 23  1  0
 23 24  2  0
 13  8  1  0
 24 17  1  0
  1 25  1  0
  1 26  1  0
  1 27  1  0
  2 28  1  0
  3 29  1  0
  3 30  1  0
  4 31  1  0
  7 32  1  0
  7 33  1  0
  9 34  1  0
  9 35  1  0
 10 36  1  0
 10 37  1  0
 11 38  1  0
 11 39  1  0
 12 40  1  0
 12 41  1  0
 13 42  1  0
 13 43  1  0
 14 44  1  0
 18 45  1  0
 20 46  1  0
 21 47  1  0
 21 48  1  0
 21 49  1  0
 22 50  1  0
 22 51  1  0
 22 52  1  0
 23 53  1  0
M  END
>  <Energy>  (838) 
68.234558577418071

>  <compound_id>  (838) 
5835

>  <target_id>  (838) 
1

>  <reference_id>  (838) 
9

>  <inspiration_ids>  (838) 
[70, 9]

>  <energy_score>  (838) 
-40.5946287075659

>  <distance_score>  (838) 
13.26445471478917

>  <path>  (838) 
/opt/xchem-fragalysis-2/maxwin/BulkDock/SCRATCH/511018/C5835-P9/C5835-P9.minimised.mol

>  <scratch_subdir>  (838) 
/opt/xchem-fragalysis-2/maxwin/BulkDock/SCRATCH/511018/C5835-P9

>  <fragmenstein_runtime>  (838) 
31.664705514907837

>  <fragmenstein_outcome>  (838) 
too moved

>  <fragmenstein_mode>  (838) 
expansion

>  <fragmenstein_error>  (838) 


$$$$
C5837-P70
     RDKit          3D

 52 53  0  0  0  0  0  0  0  0999 V2000
   -6.7717  -12.1035   21.4787 C   0  0  0  0  0  0  0  0  0  0  0  0
   -7.0318  -12.4886   19.4690 C   0  0  0  0  0  0  0  0  0  0  0  0
   -8.6827  -13.4104   18.9828 C   0  0  0  0  0  0  0  0  0  0  0  0
   -9.5572  -15.0077   18.6101 N   0  0  0  0  0  0  0  0  0  0  0  0
  -11.1791  -15.5751   19.0962 C   0  0  0  0  0  0  0  0  0  0  0  0
  -12.0274  -15.0483   19.8684 O   0  0  0  0  0  0  0  0  0  0  0  0
  -11.9406  -17.1288   18.2972 C   0  0  0  0  0  0  0  0  0  0  0  0
  -12.9097  -18.0371   19.1831 N   0  0  0  0  0  0  0  0  0  0  0  0
  -14.2371  -18.0334   18.6469 C   0  0  0  0  0  0  0  0  0  0  0  0
  -13.9365  -18.9871   17.5598 C   0  0  0  0  0  0  0  0  0  0  0  0
  -13.2867  -20.4001   18.1889 C   0  0  0  0  0  0  0  0  0  0  0  0
  -12.3742  -20.7753   19.2500 C   0  0  0  0  0  0  0  0  0  0  0  0
  -12.7154  -19.5457   19.8684 C   0  0  0  0  0  0  0  0  0  0  0  0
   -5.5915  -12.1034   18.5633 N   0  0  0  0  0  0  0  0  0  0  0  0
   -4.1582  -11.4748   19.0579 C   0  0  0  0  0  0  0  0  0  0  0  0
   -3.7893  -11.2318   20.1709 O   0  0  0  0  0  0  0  0  0  0  0  0
   -3.0941  -10.9831   18.0332 C   0  0  0  0  0  0  0  0  0  0  0  0
   -3.2886   -9.8731   17.1932 N   0  0  0  0  0  0  0  0  0  0  0  0
   -2.1830   -9.1705   17.2870 C   0  0  0  0  0  0  0  0  0  0  0  0
   -1.3086   -9.8317   18.0791 N   0  0  0  0  0  0  0  0  0  0  0  0
    0.0190   -9.4038   18.4910 C   0  0  0  0  0  0  0  0  0  0  0  0
    0.1249   -9.3106   20.0136 C   0  0  0  0  0  0  0  0  0  0  0  0
    1.1049  -10.3094   17.9124 C   0  0  0  0  0  0  0  0  0  0  0  0
   -1.7969  -11.0302   18.4439 N   0  0  0  0  0  0  0  0  0  0  0  0
   -7.6677  -11.8032   22.0543 H   0  0  0  0  0  0  0  0  0  0  0  0
   -6.0599  -11.6619   22.1289 H   0  0  0  0  0  0  0  0  0  0  0  0
   -6.3644  -12.8838   22.1244 H   0  0  0  0  0  0  0  0  0  0  0  0
   -7.4315  -11.6306   18.8742 H   0  0  0  0  0  0  0  0  0  0  0  0
   -8.3144  -13.2758   17.9585 H   0  0  0  0  0  0  0  0  0  0  0  0
   -9.4602  -12.6799   18.8669 H   0  0  0  0  0  0  0  0  0  0  0  0
   -9.1705  -15.6244   17.9139 H   0  0  0  0  0  0  0  0  0  0  0  0
  -11.4108  -17.4451   17.4448 H   0  0  0  0  0  0  0  0  0  0  0  0
  -12.7669  -16.6369   17.7977 H   0  0  0  0  0  0  0  0  0  0  0  0
  -14.6025  -17.0619   18.2956 H   0  0  0  0  0  0  0  0  0  0  0  0
  -14.9935  -18.3906   19.3535 H   0  0  0  0  0  0  0  0  0  0  0  0
  -14.9047  -19.0643   17.0816 H   0  0  0  0  0  0  0  0  0  0  0  0
  -13.3818  -18.4894   16.7794 H   0  0  0  0  0  0  0  0  0  0  0  0
  -14.1541  -20.5301   18.7911 H   0  0  0  0  0  0  0  0  0  0  0  0
  -13.2684  -21.3023   17.5856 H   0  0  0  0  0  0  0  0  0  0  0  0
  -11.2956  -20.9109   19.3203 H   0  0  0  0  0  0  0  0  0  0  0  0
  -12.6610  -21.7075   19.7473 H   0  0  0  0  0  0  0  0  0  0  0  0
  -13.6670  -19.6347   20.4098 H   0  0  0  0  0  0  0  0  0  0  0  0
  -11.9698  -19.7393   20.6539 H   0  0  0  0  0  0  0  0  0  0  0  0
   -5.6272  -12.1071   17.5507 H   0  0  0  0  0  0  0  0  0  0  0  0
   -1.9806   -8.2184   16.8171 H   0  0  0  0  0  0  0  0  0  0  0  0
    0.1590   -8.3964   18.0787 H   0  0  0  0  0  0  0  0  0  0  0  0
    0.0131  -10.2924   20.4874 H   0  0  0  0  0  0  0  0  0  0  0  0
   -0.6544   -8.6565   20.4203 H   0  0  0  0  0  0  0  0  0  0  0  0
    1.0970   -8.9027   20.3098 H   0  0  0  0  0  0  0  0  0  0  0  0
    2.1005   -9.9277   18.1616 H   0  0  0  0  0  0  0  0  0  0  0  0
    1.0274  -10.3639   16.8209 H   0  0  0  0  0  0  0  0  0  0  0  0
    1.0282  -11.3307   18.3017 H   0  0  0  0  0  0  0  0  0  0  0  0
  1  2  1  0
  2  3  1  0
  3  4  1  0
  4  5  1  0
  5  6  2  0
  5  7  1  0
  7  8  1  0
  8  9  1  0
  9 10  1  0
 10 11  1  0
 11 12  1  0
 12 13  1  0
  2 14  1  0
 14 15  1  0
 15 16  2  0
 15 17  1  0
 17 18  1  0
 18 19  2  0
 19 20  1  0
 20 21  1  0
 21 22  1  0
 21 23  1  0
 20 24  1  0
 13  8  1  0
 24 17  2  0
  1 25  1  0
  1 26  1  0
  1 27  1  0
  2 28  1  0
  3 29  1  0
  3 30  1  0
  4 31  1  0
  7 32  1  0
  7 33  1  0
  9 34  1  0
  9 35  1  0
 10 36  1  0
 10 37  1  0
 11 38  1  0
 11 39  1  0
 12 40  1  0
 12 41  1  0
 13 42  1  0
 13 43  1  0
 14 44  1  0
 19 45  1  0
 21 46  1  0
 22 47  1  0
 22 48  1  0
 22 49  1  0
 23 50  1  0
 23 51  1  0
 23 52  1  0
M  END
>  <Energy>  (839) 
680.68913728989276

>  <compound_id>  (839) 
5837

>  <target_id>  (839) 
1

>  <reference_id>  (839) 
70

>  <inspiration_ids>  (839) 
[70, 9]

>  <energy_score>  (839) 
522.8485451513636

>  <distance_score>  (839) 
12.874249698335666

>  <path>  (839) 
/opt/xchem-fragalysis-2/maxwin/BulkDock/SCRATCH/511018/C5837-P70/C5837-P70.minimised.mol

>  <scratch_subdir>  (839) 
/opt/xchem-fragalysis-2/maxwin/BulkDock/SCRATCH/511018/C5837-P70

>  <fragmenstein_runtime>  (839) 
33.810155391693115

>  <fragmenstein_outcome>  (839) 
too moved

>  <fragmenstein_mode>  (839) 
expansion

>  <fragmenstein_error>  (839) 


$$$$
C5837-P9
     RDKit          3D

 52 53  0  0  0  0  0  0  0  0999 V2000
   -7.8631  -12.0908   22.4932 C   0  0  0  0  0  0  0  0  0  0  0  0
   -9.4316  -12.8880   21.4299 C   0  0  0  0  0  0  0  0  0  0  0  0
   -9.3426  -14.1382   19.6128 C   0  0  0  0  0  0  0  0  0  0  0  0
   -9.0990  -15.7254   18.2358 N   0  0  0  0  0  0  0  0  0  0  0  0
  -10.3265  -17.0915   17.5525 C   0  0  0  0  0  0  0  0  0  0  0  0
  -11.5104  -17.3008   17.9360 O   0  0  0  0  0  0  0  0  0  0  0  0
   -9.9176  -18.2539   16.0065 C   0  0  0  0  0  0  0  0  0  0  0  0
  -10.0946  -20.0820   15.2060 N   0  0  0  0  0  0  0  0  0  0  0  0
   -9.5740  -21.6387   15.5200 C   0  0  0  0  0  0  0  0  0  0  0  0
   -9.8683  -23.0911   14.9333 C   0  0  0  0  0  0  0  0  0  0  0  0
  -10.3289  -23.1549   13.5275 C   0  0  0  0  0  0  0  0  0  0  0  0
   -9.9248  -21.8596   12.9280 C   0  0  0  0  0  0  0  0  0  0  0  0
  -10.4738  -20.4536   13.6935 C   0  0  0  0  0  0  0  0  0  0  0  0
  -10.4690  -11.5254   22.5091 N   0  0  0  0  0  0  0  0  0  0  0  0
   -9.9645   -9.9396   23.2119 C   0  0  0  0  0  0  0  0  0  0  0  0
   -8.8503   -9.5000   23.2100 O   0  0  0  0  0  0  0  0  0  0  0  0
  -11.1532   -8.6588   23.8815 C   0  0  0  0  0  0  0  0  0  0  0  0
  -11.6644   -8.5784   25.2687 N   0  0  0  0  0  0  0  0  0  0  0  0
  -11.8688   -7.3106   25.5431 C   0  0  0  0  0  0  0  0  0  0  0  0
  -11.5135   -6.5845   24.4686 N   0  0  0  0  0  0  0  0  0  0  0  0
  -11.5587   -5.1359   24.3366 C   0  0  0  0  0  0  0  0  0  0  0  0
  -12.4621   -4.7052   23.1819 C   0  0  0  0  0  0  0  0  0  0  0  0
  -10.1566   -4.5431   24.1998 C   0  0  0  0  0  0  0  0  0  0  0  0
  -11.0464   -7.3585   23.4738 N   0  0  0  0  0  0  0  0  0  0  0  0
   -7.0313  -12.5610   23.0159 H   0  0  0  0  0  0  0  0  0  0  0  0
   -7.9527  -11.1202   22.8920 H   0  0  0  0  0  0  0  0  0  0  0  0
   -6.9845  -12.0223   21.8095 H   0  0  0  0  0  0  0  0  0  0  0  0
  -10.4937  -13.1607   21.6100 H   0  0  0  0  0  0  0  0  0  0  0  0
   -8.6417  -13.4184   19.1368 H   0  0  0  0  0  0  0  0  0  0  0  0
   -8.7306  -14.7611   20.2108 H   0  0  0  0  0  0  0  0  0  0  0  0
   -8.2148  -15.7963   17.7636 H   0  0  0  0  0  0  0  0  0  0  0  0
  -10.8220  -17.9413   15.4721 H   0  0  0  0  0  0  0  0  0  0  0  0
   -9.8999  -18.8272   16.9193 H   0  0  0  0  0  0  0  0  0  0  0  0
   -9.4137  -21.6403   16.5752 H   0  0  0  0  0  0  0  0  0  0  0  0
   -8.6617  -21.7539   14.9261 H   0  0  0  0  0  0  0  0  0  0  0  0
   -8.9234  -23.5718   15.0120 H   0  0  0  0  0  0  0  0  0  0  0  0
  -10.3757  -23.8621   15.4847 H   0  0  0  0  0  0  0  0  0  0  0  0
  -11.4049  -23.3234   13.4348 H   0  0  0  0  0  0  0  0  0  0  0  0
   -9.8522  -23.9920   13.0030 H   0  0  0  0  0  0  0  0  0  0  0  0
  -10.2420  -21.9829   11.9026 H   0  0  0  0  0  0  0  0  0  0  0  0
   -8.8330  -21.8534   12.8141 H   0  0  0  0  0  0  0  0  0  0  0  0
  -10.0609  -19.6752   13.0718 H   0  0  0  0  0  0  0  0  0  0  0  0
  -11.5357  -20.4197   13.5906 H   0  0  0  0  0  0  0  0  0  0  0  0
  -11.4574  -11.6142   22.5697 H   0  0  0  0  0  0  0  0  0  0  0  0
  -12.2511   -6.9044   26.4683 H   0  0  0  0  0  0  0  0  0  0  0  0
  -11.9976   -4.7560   25.2682 H   0  0  0  0  0  0  0  0  0  0  0  0
  -13.4656   -5.1312   23.2915 H   0  0  0  0  0  0  0  0  0  0  0  0
  -12.0668   -5.0331   22.2143 H   0  0  0  0  0  0  0  0  0  0  0  0
  -12.5593   -3.6148   23.1531 H   0  0  0  0  0  0  0  0  0  0  0  0
  -10.1982   -3.4488   24.1939 H   0  0  0  0  0  0  0  0  0  0  0  0
   -9.5185   -4.8526   25.0349 H   0  0  0  0  0  0  0  0  0  0  0  0
   -9.6690   -4.8659   23.2736 H   0  0  0  0  0  0  0  0  0  0  0  0
  1  2  1  0
  2  3  1  0
  3  4  1  0
  4  5  1  0
  5  6  2  0
  5  7  1  0
  7  8  1  0
  8  9  1  0
  9 10  1  0
 10 11  1  0
 11 12  1  0
 12 13  1  0
  2 14  1  0
 14 15  1  0
 15 16  2  0
 15 17  1  0
 17 18  1  0
 18 19  2  0
 19 20  1  0
 20 21  1  0
 21 22  1  0
 21 23  1  0
 20 24  1  0
 13  8  1  0
 24 17  2  0
  1 25  1  0
  1 26  1  0
  1 27  1  0
  2 28  1  0
  3 29  1  0
  3 30  1  0
  4 31  1  0
  7 32  1  0
  7 33  1  0
  9 34  1  0
  9 35  1  0
 10 36  1  0
 10 37  1  0
 11 38  1  0
 11 39  1  0
 12 40  1  0
 12 41  1  0
 13 42  1  0
 13 43  1  0
 14 44  1  0
 19 45  1  0
 21 46  1  0
 22 47  1  0
 22 48  1  0
 22 49  1  0
 23 50  1  0
 23 51  1  0
 23 52  1  0
M  END
>  <Energy>  (840) 
1232.375474747809

>  <compound_id>  (840) 
5837

>  <target_id>  (840) 
1

>  <reference_id>  (840) 
9

>  <inspiration_ids>  (840) 
[70, 9]

>  <energy_score>  (840) 
1074.5348826092868

>  <distance_score>  (840) 
11.380122995508252

>  <path>  (840) 
/opt/xchem-fragalysis-2/maxwin/BulkDock/SCRATCH/511018/C5837-P9/C5837-P9.minimised.mol

>  <scratch_subdir>  (840) 
/opt/xchem-fragalysis-2/maxwin/BulkDock/SCRATCH/511018/C5837-P9

>  <fragmenstein_runtime>  (840) 
31.111087322235107

>  <fragmenstein_outcome>  (840) 
too moved

>  <fragmenstein_mode>  (840) 
expansion

>  <fragmenstein_error>  (840) 


$$$$
C5856-P70
     RDKit          3D

 53 54  0  0  0  0  0  0  0  0999 V2000
   -1.9400   -2.2046   27.2660 C   0  0  0  0  0  0  0  0  0  0  0  0
   -3.1285   -2.7645   25.9900 C   0  0  0  0  0  0  0  0  0  0  0  0
   -4.3567   -2.7088   27.0001 C   0  0  0  0  0  0  0  0  0  0  0  0
   -2.7786   -4.2365   24.8078 N   0  0  0  0  0  0  0  0  0  0  0  0
   -1.8078   -4.4245   23.9416 C   0  0  0  0  0  0  0  0  0  0  0  0
   -2.9750   -2.9155   23.5492 C   0  0  0  0  0  0  0  0  0  0  0  0
   -3.8021   -3.6653   22.5280 C   0  0  0  0  0  0  0  0  0  0  0  0
   -3.0720   -5.3971   23.2670 C   0  0  0  0  0  0  0  0  0  0  0  0
   -3.1643   -7.3923   22.7157 C   0  0  0  0  0  0  0  0  0  0  0  0
   -3.0305   -8.3661   20.9467 C   0  0  0  0  0  0  0  0  0  0  0  0
   -2.6778   -7.6016   20.0817 O   0  0  0  0  0  0  0  0  0  0  0  0
   -3.5219  -10.0666   20.6204 N   0  0  0  0  0  0  0  0  0  0  0  0
   -3.7599  -10.9999   18.9955 C   0  0  0  0  0  0  0  0  0  0  0  0
   -5.3775  -11.5979   17.8603 C   0  0  0  0  0  0  0  0  0  0  0  0
   -7.3472  -11.3072   17.6742 C   0  0  0  0  0  0  0  0  0  0  0  0
   -7.6845  -10.4251   18.3722 O   0  0  0  0  0  0  0  0  0  0  0  0
   -8.5926  -12.0955   16.7458 N   0  0  0  0  0  0  0  0  0  0  0  0
   -8.9935  -11.4327   14.9394 C   0  0  0  0  0  0  0  0  0  0  0  0
   -9.5412  -12.5154   13.8458 C   0  0  0  0  0  0  0  0  0  0  0  0
  -11.0386  -12.6312   14.0102 C   0  0  0  0  0  0  0  0  0  0  0  0
  -11.4561  -11.7507   15.1863 C   0  0  0  0  0  0  0  0  0  0  0  0
  -10.5423  -11.8760   16.7568 C   0  0  0  0  0  0  0  0  0  0  0  0
   -1.7594   -1.1305   27.1290 H   0  0  0  0  0  0  0  0  0  0  0  0
   -1.0030   -2.7673   27.2957 H   0  0  0  0  0  0  0  0  0  0  0  0
   -2.3198   -2.3302   28.2890 H   0  0  0  0  0  0  0  0  0  0  0  0
   -3.4482   -1.8188   25.5214 H   0  0  0  0  0  0  0  0  0  0  0  0
   -4.0483   -1.9317   27.6574 H   0  0  0  0  0  0  0  0  0  0  0  0
   -5.2042   -2.5009   26.3882 H   0  0  0  0  0  0  0  0  0  0  0  0
   -4.6807   -3.4075   27.7692 H   0  0  0  0  0  0  0  0  0  0  0  0
   -1.6074   -5.4868   24.3501 H   0  0  0  0  0  0  0  0  0  0  0  0
   -0.7901   -4.3717   23.5384 H   0  0  0  0  0  0  0  0  0  0  0  0
   -2.3502   -2.1137   23.1155 H   0  0  0  0  0  0  0  0  0  0  0  0
   -3.7408   -2.5074   24.1158 H   0  0  0  0  0  0  0  0  0  0  0  0
   -3.4173   -2.9140   21.8612 H   0  0  0  0  0  0  0  0  0  0  0  0
   -4.6380   -3.8052   21.8123 H   0  0  0  0  0  0  0  0  0  0  0  0
   -3.4482   -5.3602   22.1724 H   0  0  0  0  0  0  0  0  0  0  0  0
   -4.1852   -7.5943   23.0262 H   0  0  0  0  0  0  0  0  0  0  0  0
   -2.4668   -7.9159   23.3849 H   0  0  0  0  0  0  0  0  0  0  0  0
   -3.6957  -10.5365   21.5052 H   0  0  0  0  0  0  0  0  0  0  0  0
   -3.1991  -10.3476   18.3069 H   0  0  0  0  0  0  0  0  0  0  0  0
   -3.1122  -11.8458   19.1641 H   0  0  0  0  0  0  0  0  0  0  0  0
   -5.6501  -12.3759   18.5530 H   0  0  0  0  0  0  0  0  0  0  0  0
   -4.9582  -11.7746   16.8683 H   0  0  0  0  0  0  0  0  0  0  0  0
   -9.6071  -10.5660   14.5485 H   0  0  0  0  0  0  0  0  0  0  0  0
   -8.2301  -10.8075   14.5181 H   0  0  0  0  0  0  0  0  0  0  0  0
   -9.3235  -12.1062   12.8496 H   0  0  0  0  0  0  0  0  0  0  0  0
   -9.0575  -13.4977   13.8647 H   0  0  0  0  0  0  0  0  0  0  0  0
  -11.5330  -12.2674   13.1005 H   0  0  0  0  0  0  0  0  0  0  0  0
  -11.3695  -13.6662   14.1209 H   0  0  0  0  0  0  0  0  0  0  0  0
  -12.5439  -11.7185   15.1972 H   0  0  0  0  0  0  0  0  0  0  0  0
  -11.4023  -10.6974   14.8607 H   0  0  0  0  0  0  0  0  0  0  0  0
  -10.8916  -11.0286   17.3899 H   0  0  0  0  0  0  0  0  0  0  0  0
  -10.7298  -12.5440   17.5655 H   0  0  0  0  0  0  0  0  0  0  0  0
  1  2  1  0
  2  3  1  0
  2  4  1  0
  4  5  1  0
  5  6  1  0
  6  7  1  0
  7  8  1  0
  8  9  1  0
  9 10  1  0
 10 11  2  0
 10 12  1  0
 12 13  1  0
 13 14  1  0
 14 15  1  0
 15 16  2  0
 15 17  1  0
 17 18  1  0
 18 19  1  0
 19 20  1  0
 20 21  1  0
 21 22  1  0
  8  4  1  0
 22 17  1  0
  1 23  1  0
  1 24  1  0
  1 25  1  0
  2 26  1  0
  3 27  1  0
  3 28  1  0
  3 29  1  0
  5 30  1  0
  5 31  1  0
  6 32  1  0
  6 33  1  0
  7 34  1  0
  7 35  1  0
  8 36  1  0
  9 37  1  0
  9 38  1  0
 12 39  1  0
 13 40  1  0
 13 41  1  0
 14 42  1  0
 14 43  1  0
 18 44  1  0
 18 45  1  0
 19 46  1  0
 19 47  1  0
 20 48  1  0
 20 49  1  0
 21 50  1  0
 21 51  1  0
 22 52  1  0
 22 53  1  0
M  END
>  <Energy>  (841) 
1439.9796283986454

>  <compound_id>  (841) 
5856

>  <target_id>  (841) 
1

>  <reference_id>  (841) 
70

>  <inspiration_ids>  (841) 
[70, 9]

>  <energy_score>  (841) 
1414.9519269512516

>  <distance_score>  (841) 
12.79405201402482

>  <path>  (841) 
/opt/xchem-fragalysis-2/maxwin/BulkDock/SCRATCH/511018/C5856-P70/C5856-P70.minimised.mol

>  <scratch_subdir>  (841) 
/opt/xchem-fragalysis-2/maxwin/BulkDock/SCRATCH/511018/C5856-P70

>  <fragmenstein_runtime>  (841) 
31.614382028579712

>  <fragmenstein_outcome>  (841) 
too moved

>  <fragmenstein_mode>  (841) 
expansion

>  <fragmenstein_error>  (841) 


$$$$
C5856-P9
     RDKit          3D

 53 54  0  0  0  0  0  0  0  0999 V2000
   -1.4459   -2.9494   29.6063 C   0  0  0  0  0  0  0  0  0  0  0  0
   -0.9844   -3.2998   28.1661 C   0  0  0  0  0  0  0  0  0  0  0  0
    0.5452   -3.0514   28.2166 C   0  0  0  0  0  0  0  0  0  0  0  0
   -1.7171   -2.5296   27.0820 N   0  0  0  0  0  0  0  0  0  0  0  0
   -1.8532   -1.1507   27.5151 C   0  0  0  0  0  0  0  0  0  0  0  0
   -2.5386   -0.5851   26.3812 C   0  0  0  0  0  0  0  0  0  0  0  0
   -3.3461   -1.8300   25.9249 C   0  0  0  0  0  0  0  0  0  0  0  0
   -2.8566   -3.2084   25.6547 C   0  0  0  0  0  0  0  0  0  0  0  0
   -2.1837   -4.8779   24.5300 C   0  0  0  0  0  0  0  0  0  0  0  0
   -2.4144   -6.8811   24.8278 C   0  0  0  0  0  0  0  0  0  0  0  0
   -2.3809   -7.1266   26.0047 O   0  0  0  0  0  0  0  0  0  0  0  0
   -2.5300   -7.7846   23.6784 N   0  0  0  0  0  0  0  0  0  0  0  0
   -2.5419   -9.2504   23.6026 C   0  0  0  0  0  0  0  0  0  0  0  0
   -1.4231  -10.1173   24.2227 C   0  0  0  0  0  0  0  0  0  0  0  0
   -0.2939  -10.6246   23.3015 C   0  0  0  0  0  0  0  0  0  0  0  0
    0.6616   -9.9085   23.1408 O   0  0  0  0  0  0  0  0  0  0  0  0
   -0.6021  -11.9287   22.7358 N   0  0  0  0  0  0  0  0  0  0  0  0
   -0.0680  -13.0458   23.6490 C   0  0  0  0  0  0  0  0  0  0  0  0
   -0.7630  -14.4434   23.5391 C   0  0  0  0  0  0  0  0  0  0  0  0
   -0.5602  -15.0971   22.1860 C   0  0  0  0  0  0  0  0  0  0  0  0
   -0.5735  -14.0168   21.1355 C   0  0  0  0  0  0  0  0  0  0  0  0
    0.1308  -12.7529   21.6730 C   0  0  0  0  0  0  0  0  0  0  0  0
   -2.5269   -2.8990   29.6940 H   0  0  0  0  0  0  0  0  0  0  0  0
   -1.0920   -3.7092   30.3129 H   0  0  0  0  0  0  0  0  0  0  0  0
   -1.0451   -1.9867   29.9462 H   0  0  0  0  0  0  0  0  0  0  0  0
   -1.1167   -4.3665   28.0559 H   0  0  0  0  0  0  0  0  0  0  0  0
    0.9520   -3.2730   29.2115 H   0  0  0  0  0  0  0  0  0  0  0  0
    0.8114   -2.0150   27.9906 H   0  0  0  0  0  0  0  0  0  0  0  0
    1.0927   -3.7099   27.5447 H   0  0  0  0  0  0  0  0  0  0  0  0
   -2.4731   -1.0362   28.4064 H   0  0  0  0  0  0  0  0  0  0  0  0
   -0.8987   -0.6460   27.6929 H   0  0  0  0  0  0  0  0  0  0  0  0
   -1.8536   -0.1591   25.6689 H   0  0  0  0  0  0  0  0  0  0  0  0
   -3.0951    0.3071   26.6843 H   0  0  0  0  0  0  0  0  0  0  0  0
   -3.8224   -1.5063   25.0801 H   0  0  0  0  0  0  0  0  0  0  0  0
   -4.0352   -2.1273   26.7185 H   0  0  0  0  0  0  0  0  0  0  0  0
   -2.7401   -2.7777   24.6213 H   0  0  0  0  0  0  0  0  0  0  0  0
   -1.1461   -4.8605   24.1707 H   0  0  0  0  0  0  0  0  0  0  0  0
   -2.8689   -4.8308   23.7399 H   0  0  0  0  0  0  0  0  0  0  0  0
   -2.6137   -7.2482   22.8531 H   0  0  0  0  0  0  0  0  0  0  0  0
   -3.3861   -9.5072   24.2275 H   0  0  0  0  0  0  0  0  0  0  0  0
   -2.7505   -9.5190   22.5674 H   0  0  0  0  0  0  0  0  0  0  0  0
   -1.9076  -11.0141   24.6336 H   0  0  0  0  0  0  0  0  0  0  0  0
   -0.9665   -9.6258   25.0864 H   0  0  0  0  0  0  0  0  0  0  0  0
   -0.3291  -12.7041   24.6628 H   0  0  0  0  0  0  0  0  0  0  0  0
    1.0320  -13.0939   23.7204 H   0  0  0  0  0  0  0  0  0  0  0  0
   -0.3636  -15.0997   24.3218 H   0  0  0  0  0  0  0  0  0  0  0  0
   -1.8299  -14.3429   23.7543 H   0  0  0  0  0  0  0  0  0  0  0  0
   -1.3124  -15.8677   21.9905 H   0  0  0  0  0  0  0  0  0  0  0  0
    0.4185  -15.5927   22.1762 H   0  0  0  0  0  0  0  0  0  0  0  0
   -0.0688  -14.3701   20.2294 H   0  0  0  0  0  0  0  0  0  0  0  0
   -1.5983  -13.7829   20.8547 H   0  0  0  0  0  0  0  0  0  0  0  0
    0.1454  -12.0530   20.8237 H   0  0  0  0  0  0  0  0  0  0  0  0
    1.2164  -12.8710   21.8326 H   0  0  0  0  0  0  0  0  0  0  0  0
  1  2  1  0
  2  3  1  0
  2  4  1  0
  4  5  1  0
  5  6  1  0
  6  7  1  0
  7  8  1  0
  8  9  1  0
  9 10  1  0
 10 11  2  0
 10 12  1  0
 12 13  1  0
 13 14  1  0
 14 15  1  0
 15 16  2  0
 15 17  1  0
 17 18  1  0
 18 19  1  0
 19 20  1  0
 20 21  1  0
 21 22  1  0
  8  4  1  0
 22 17  1  0
  1 23  1  0
  1 24  1  0
  1 25  1  0
  2 26  1  0
  3 27  1  0
  3 28  1  0
  3 29  1  0
  5 30  1  0
  5 31  1  0
  6 32  1  0
  6 33  1  0
  7 34  1  0
  7 35  1  0
  8 36  1  0
  9 37  1  0
  9 38  1  0
 12 39  1  0
 13 40  1  0
 13 41  1  0
 14 42  1  0
 14 43  1  0
 18 44  1  0
 18 45  1  0
 19 46  1  0
 19 47  1  0
 20 48  1  0
 20 49  1  0
 21 50  1  0
 21 51  1  0
 22 52  1  0
 22 53  1  0
M  END
>  <Energy>  (842) 
416.20124432608384

>  <compound_id>  (842) 
5856

>  <target_id>  (842) 
1

>  <reference_id>  (842) 
9

>  <inspiration_ids>  (842) 
[70, 9]

>  <energy_score>  (842) 
391.17354287868307

>  <distance_score>  (842) 
15.143976012404497

>  <path>  (842) 
/opt/xchem-fragalysis-2/maxwin/BulkDock/SCRATCH/511018/C5856-P9/C5856-P9.minimised.mol

>  <scratch_subdir>  (842) 
/opt/xchem-fragalysis-2/maxwin/BulkDock/SCRATCH/511018/C5856-P9

>  <fragmenstein_runtime>  (842) 
33.6926212310791

>  <fragmenstein_outcome>  (842) 
too moved

>  <fragmenstein_mode>  (842) 
expansion

>  <fragmenstein_error>  (842) 


$$$$
C5864-P70
     RDKit          3D

 55 56  0  0  0  0  0  0  0  0999 V2000
   -1.3039   -6.9543   25.7455 C   0  0  0  0  0  0  0  0  0  0  0  0
   -1.4403   -6.8796   24.2138 C   0  0  0  0  0  0  0  0  0  0  0  0
   -0.9471   -8.2024   23.5586 C   0  0  0  0  0  0  0  0  0  0  0  0
   -2.9475   -6.1416   23.5097 N   0  0  0  0  0  0  0  0  0  0  0  0
   -2.8910   -4.6605   23.7676 C   0  0  0  0  0  0  0  0  0  0  0  0
   -3.8348   -3.7276   22.3431 C   0  0  0  0  0  0  0  0  0  0  0  0
   -4.6186   -5.0861   21.3286 C   0  0  0  0  0  0  0  0  0  0  0  0
   -3.9357   -6.6880   22.0702 C   0  0  0  0  0  0  0  0  0  0  0  0
   -3.1483   -7.7028   20.5870 C   0  0  0  0  0  0  0  0  0  0  0  0
   -3.0664   -7.0066   19.5973 O   0  0  0  0  0  0  0  0  0  0  0  0
   -2.8526   -9.1522   20.7702 N   0  0  0  0  0  0  0  0  0  0  0  0
   -2.4315  -10.3067   19.6849 C   0  0  0  0  0  0  0  0  0  0  0  0
   -3.2703  -10.5647   18.1179 C   0  0  0  0  0  0  0  0  0  0  0  0
   -2.8228   -9.9388   17.1827 O   0  0  0  0  0  0  0  0  0  0  0  0
   -4.5172  -11.4694   18.2090 N   0  0  0  0  0  0  0  0  0  0  0  0
   -5.8320  -11.8202   16.9920 C   0  0  0  0  0  0  0  0  0  0  0  0
   -6.1371  -13.3643   15.9892 C   0  0  0  0  0  0  0  0  0  0  0  0
   -6.1288  -14.0813   14.6335 N   0  0  0  0  0  0  0  0  0  0  0  0
   -7.1908  -13.6641   13.7004 C   0  0  0  0  0  0  0  0  0  0  0  0
   -7.2763  -14.5207   12.4203 C   0  0  0  0  0  0  0  0  0  0  0  0
   -7.3703  -16.0138   12.7093 C   0  0  0  0  0  0  0  0  0  0  0  0
   -6.2032  -16.4053   13.5962 C   0  0  0  0  0  0  0  0  0  0  0  0
   -6.2070  -15.5627   14.8718 C   0  0  0  0  0  0  0  0  0  0  0  0
   -0.9497   -6.0266   26.1889 H   0  0  0  0  0  0  0  0  0  0  0  0
   -0.5666   -7.7116   26.0338 H   0  0  0  0  0  0  0  0  0  0  0  0
   -2.2384   -7.1898   26.2339 H   0  0  0  0  0  0  0  0  0  0  0  0
   -0.6256   -6.1759   23.9720 H   0  0  0  0  0  0  0  0  0  0  0  0
   -0.8571   -8.1410   22.4724 H   0  0  0  0  0  0  0  0  0  0  0  0
   -1.6016   -9.0363   23.7943 H   0  0  0  0  0  0  0  0  0  0  0  0
    0.0539   -8.4483   23.9317 H   0  0  0  0  0  0  0  0  0  0  0  0
   -3.0028   -4.0058   24.6292 H   0  0  0  0  0  0  0  0  0  0  0  0
   -1.8088   -4.6473   23.8378 H   0  0  0  0  0  0  0  0  0  0  0  0
   -3.3860   -2.8381   21.9053 H   0  0  0  0  0  0  0  0  0  0  0  0
   -4.2332   -3.0936   23.0971 H   0  0  0  0  0  0  0  0  0  0  0  0
   -4.3231   -5.0187   20.2790 H   0  0  0  0  0  0  0  0  0  0  0  0
   -5.7086   -5.0011   21.3850 H   0  0  0  0  0  0  0  0  0  0  0  0
   -3.4668   -5.7781   22.0811 H   0  0  0  0  0  0  0  0  0  0  0  0
   -2.9509   -9.3866   21.7456 H   0  0  0  0  0  0  0  0  0  0  0  0
   -1.3921  -10.0813   19.4264 H   0  0  0  0  0  0  0  0  0  0  0  0
   -2.4784  -11.2543   20.2182 H   0  0  0  0  0  0  0  0  0  0  0  0
   -4.6420  -11.7708   19.1667 H   0  0  0  0  0  0  0  0  0  0  0  0
   -5.9856  -10.9113   16.3920 H   0  0  0  0  0  0  0  0  0  0  0  0
   -6.7046  -11.8382   17.6583 H   0  0  0  0  0  0  0  0  0  0  0  0
   -7.1910  -13.4630   16.2188 H   0  0  0  0  0  0  0  0  0  0  0  0
   -5.4118  -14.0220   16.4408 H   0  0  0  0  0  0  0  0  0  0  0  0
   -8.1754  -13.6784   14.1630 H   0  0  0  0  0  0  0  0  0  0  0  0
   -7.0112  -12.6244   13.4027 H   0  0  0  0  0  0  0  0  0  0  0  0
   -8.1450  -14.2054   11.8307 H   0  0  0  0  0  0  0  0  0  0  0  0
   -6.3894  -14.3264   11.8033 H   0  0  0  0  0  0  0  0  0  0  0  0
   -7.3446  -16.5823   11.7736 H   0  0  0  0  0  0  0  0  0  0  0  0
   -8.3216  -16.2375   13.2056 H   0  0  0  0  0  0  0  0  0  0  0  0
   -6.2495  -17.4687   13.8469 H   0  0  0  0  0  0  0  0  0  0  0  0
   -5.2588  -16.2524   13.0585 H   0  0  0  0  0  0  0  0  0  0  0  0
   -5.3382  -15.8767   15.4637 H   0  0  0  0  0  0  0  0  0  0  0  0
   -7.1032  -15.8073   15.4534 H   0  0  0  0  0  0  0  0  0  0  0  0
  1  2  1  0
  2  3  1  0
  2  4  1  0
  4  5  1  0
  5  6  1  0
  6  7  1  0
  7  8  1  0
  8  9  1  0
  9 10  2  0
  9 11  1  0
 11 12  1  0
 12 13  1  0
 13 14  2  0
 13 15  1  0
 15 16  1  0
 16 17  1  0
 17 18  1  0
 18 19  1  0
 19 20  1  0
 20 21  1  0
 21 22  1  0
 22 23  1  0
  8  4  1  0
 23 18  1  0
  1 24  1  0
  1 25  1  0
  1 26  1  0
  2 27  1  0
  3 28  1  0
  3 29  1  0
  3 30  1  0
  5 31  1  0
  5 32  1  0
  6 33  1  0
  6 34  1  0
  7 35  1  0
  7 36  1  0
  8 37  1  0
 11 38  1  0
 12 39  1  0
 12 40  1  0
 15 41  1  0
 16 42  1  0
 16 43  1  0
 17 44  1  0
 17 45  1  0
 19 46  1  0
 19 47  1  0
 20 48  1  0
 20 49  1  0
 21 50  1  0
 21 51  1  0
 22 52  1  0
 22 53  1  0
 23 54  1  0
 23 55  1  0
M  END
>  <Energy>  (843) 
583.53935436451115

>  <compound_id>  (843) 
5864

>  <target_id>  (843) 
1

>  <reference_id>  (843) 
70

>  <inspiration_ids>  (843) 
[70, 9]

>  <energy_score>  (843) 
463.2232761689987

>  <distance_score>  (843) 
12.187032953614398

>  <path>  (843) 
/opt/xchem-fragalysis-2/maxwin/BulkDock/SCRATCH/511018/C5864-P70/C5864-P70.minimised.mol

>  <scratch_subdir>  (843) 
/opt/xchem-fragalysis-2/maxwin/BulkDock/SCRATCH/511018/C5864-P70

>  <fragmenstein_runtime>  (843) 
37.49639916419983

>  <fragmenstein_outcome>  (843) 
too moved

>  <fragmenstein_mode>  (843) 
expansion

>  <fragmenstein_error>  (843) 


$$$$
C5864-P9
     RDKit          3D

 55 56  0  0  0  0  0  0  0  0999 V2000
   -4.4803   -5.2075   21.4485 C   0  0  0  0  0  0  0  0  0  0  0  0
   -3.6691   -6.3500   22.6638 C   0  0  0  0  0  0  0  0  0  0  0  0
   -2.6559   -5.1001   23.8340 C   0  0  0  0  0  0  0  0  0  0  0  0
   -2.8456   -7.6576   22.3958 N   0  0  0  0  0  0  0  0  0  0  0  0
   -1.7081   -7.4466   23.9982 C   0  0  0  0  0  0  0  0  0  0  0  0
   -2.0066   -8.9080   24.9363 C   0  0  0  0  0  0  0  0  0  0  0  0
   -3.1362   -9.8124   23.5655 C   0  0  0  0  0  0  0  0  0  0  0  0
   -3.4817   -9.4514   21.9485 C   0  0  0  0  0  0  0  0  0  0  0  0
   -4.2767  -10.8915   20.5685 C   0  0  0  0  0  0  0  0  0  0  0  0
   -5.1972  -11.3369   21.0104 O   0  0  0  0  0  0  0  0  0  0  0  0
   -4.0705  -11.5346   18.8462 N   0  0  0  0  0  0  0  0  0  0  0  0
   -5.2276  -12.6836   17.7015 C   0  0  0  0  0  0  0  0  0  0  0  0
   -5.8092  -14.6014   16.8940 C   0  0  0  0  0  0  0  0  0  0  0  0
   -6.6287  -14.4458   16.0563 O   0  0  0  0  0  0  0  0  0  0  0  0
   -5.4539  -16.4111   17.3615 N   0  0  0  0  0  0  0  0  0  0  0  0
   -6.2847  -18.0601   16.8458 C   0  0  0  0  0  0  0  0  0  0  0  0
   -7.2861  -19.7740   17.5903 C   0  0  0  0  0  0  0  0  0  0  0  0
   -8.8049  -21.0349   17.0610 N   0  0  0  0  0  0  0  0  0  0  0  0
   -9.7577  -20.8411   15.4990 C   0  0  0  0  0  0  0  0  0  0  0  0
  -10.0759  -21.5807   13.8413 C   0  0  0  0  0  0  0  0  0  0  0  0
  -10.1988  -23.0653   13.7778 C   0  0  0  0  0  0  0  0  0  0  0  0
   -9.5567  -23.4993   15.0364 C   0  0  0  0  0  0  0  0  0  0  0  0
   -8.5167  -22.3942   15.6221 C   0  0  0  0  0  0  0  0  0  0  0  0
   -4.0939   -5.0485   20.4576 H   0  0  0  0  0  0  0  0  0  0  0  0
   -4.3760   -4.1606   21.7696 H   0  0  0  0  0  0  0  0  0  0  0  0
   -5.5637   -5.3217   21.4126 H   0  0  0  0  0  0  0  0  0  0  0  0
   -4.5629   -6.7763   23.0880 H   0  0  0  0  0  0  0  0  0  0  0  0
   -3.1374   -4.1456   24.1183 H   0  0  0  0  0  0  0  0  0  0  0  0
   -1.6015   -4.7801   23.6817 H   0  0  0  0  0  0  0  0  0  0  0  0
   -1.9978   -5.3946   24.6557 H   0  0  0  0  0  0  0  0  0  0  0  0
   -0.6551   -7.1187   23.7990 H   0  0  0  0  0  0  0  0  0  0  0  0
   -1.9313   -6.8767   24.8844 H   0  0  0  0  0  0  0  0  0  0  0  0
   -2.4876   -8.5710   25.8337 H   0  0  0  0  0  0  0  0  0  0  0  0
   -1.0967   -9.4527   25.2736 H   0  0  0  0  0  0  0  0  0  0  0  0
   -3.5134  -10.7998   23.8312 H   0  0  0  0  0  0  0  0  0  0  0  0
   -3.8828   -9.2179   23.7501 H   0  0  0  0  0  0  0  0  0  0  0  0
   -4.3767   -8.9299   22.2093 H   0  0  0  0  0  0  0  0  0  0  0  0
   -3.1861  -11.1859   18.4969 H   0  0  0  0  0  0  0  0  0  0  0  0
   -6.0142  -12.6585   18.4853 H   0  0  0  0  0  0  0  0  0  0  0  0
   -5.5823  -11.7338   17.2764 H   0  0  0  0  0  0  0  0  0  0  0  0
   -4.7086  -16.4256   17.9980 H   0  0  0  0  0  0  0  0  0  0  0  0
   -7.0482  -17.5671   16.2270 H   0  0  0  0  0  0  0  0  0  0  0  0
   -5.4255  -18.4688   16.2923 H   0  0  0  0  0  0  0  0  0  0  0  0
   -6.4708  -20.5172   17.5442 H   0  0  0  0  0  0  0  0  0  0  0  0
   -7.3790  -19.6776   18.6731 H   0  0  0  0  0  0  0  0  0  0  0  0
  -10.0842  -19.8089   15.4973 H   0  0  0  0  0  0  0  0  0  0  0  0
  -10.2506  -21.5928   15.9842 H   0  0  0  0  0  0  0  0  0  0  0  0
  -10.9508  -21.0729   13.4690 H   0  0  0  0  0  0  0  0  0  0  0  0
   -9.3894  -21.4358   12.9959 H   0  0  0  0  0  0  0  0  0  0  0  0
  -11.2218  -23.4335   13.6627 H   0  0  0  0  0  0  0  0  0  0  0  0
   -9.6524  -23.4601   12.9116 H   0  0  0  0  0  0  0  0  0  0  0  0
   -9.2068  -24.5028   14.8295 H   0  0  0  0  0  0  0  0  0  0  0  0
  -10.2883  -23.7800   15.7288 H   0  0  0  0  0  0  0  0  0  0  0  0
   -8.0747  -21.9538   14.6996 H   0  0  0  0  0  0  0  0  0  0  0  0
   -7.6394  -22.9752   15.7847 H   0  0  0  0  0  0  0  0  0  0  0  0
  1  2  1  0
  2  3  1  0
  2  4  1  0
  4  5  1  0
  5  6  1  0
  6  7  1  0
  7  8  1  0
  8  9  1  0
  9 10  2  0
  9 11  1  0
 11 12  1  0
 12 13  1  0
 13 14  2  0
 13 15  1  0
 15 16  1  0
 16 17  1  0
 17 18  1  0
 18 19  1  0
 19 20  1  0
 20 21  1  0
 21 22  1  0
 22 23  1  0
  8  4  1  0
 23 18  1  0
  1 24  1  0
  1 25  1  0
  1 26  1  0
  2 27  1  0
  3 28  1  0
  3 29  1  0
  3 30  1  0
  5 31  1  0
  5 32  1  0
  6 33  1  0
  6 34  1  0
  7 35  1  0
  7 36  1  0
  8 37  1  0
 11 38  1  0
 12 39  1  0
 12 40  1  0
 15 41  1  0
 16 42  1  0
 16 43  1  0
 17 44  1  0
 17 45  1  0
 19 46  1  0
 19 47  1  0
 20 48  1  0
 20 49  1  0
 21 50  1  0
 21 51  1  0
 22 52  1  0
 22 53  1  0
 23 54  1  0
 23 55  1  0
M  END
>  <Energy>  (844) 
1642.4487004387765

>  <compound_id>  (844) 
5864

>  <target_id>  (844) 
1

>  <reference_id>  (844) 
9

>  <inspiration_ids>  (844) 
[70, 9]

>  <energy_score>  (844) 
1522.132622243289

>  <distance_score>  (844) 
10.326426195975172

>  <path>  (844) 
/opt/xchem-fragalysis-2/maxwin/BulkDock/SCRATCH/511018/C5864-P9/C5864-P9.minimised.mol

>  <scratch_subdir>  (844) 
/opt/xchem-fragalysis-2/maxwin/BulkDock/SCRATCH/511018/C5864-P9

>  <fragmenstein_runtime>  (844) 
26.8354275226593

>  <fragmenstein_outcome>  (844) 
too moved

>  <fragmenstein_mode>  (844) 
expansion

>  <fragmenstein_error>  (844) 


$$$$
C5872-P70
     RDKit          3D

 39 40  0  0  0  0  0  0  0  0999 V2000
   -8.6610   -6.2387   19.3381 O   0  0  0  0  0  0  0  0  0  0  0  0
   -8.2498   -7.1489   20.0464 C   0  0  0  0  0  0  0  0  0  0  0  0
   -8.2791   -8.8894   19.0149 C   0  0  0  0  0  0  0  0  0  0  0  0
   -7.7944  -10.6013   18.5702 O   0  0  0  0  0  0  0  0  0  0  0  0
   -8.2776  -12.2421   18.1926 C   0  0  0  0  0  0  0  0  0  0  0  0
   -8.8716  -12.8040   16.8315 C   0  0  0  0  0  0  0  0  0  0  0  0
  -10.1403  -13.6645   16.9726 C   0  0  0  0  0  0  0  0  0  0  0  0
   -9.8838  -14.9562   17.6120 N   0  0  0  0  0  0  0  0  0  0  0  0
   -8.7696  -14.8645   18.5544 C   0  0  0  0  0  0  0  0  0  0  0  0
   -8.6382  -13.4702   19.2075 C   0  0  0  0  0  0  0  0  0  0  0  0
   -7.5647   -6.9843   21.7017 N   0  0  0  0  0  0  0  0  0  0  0  0
   -5.6907   -6.7037   22.3915 C   0  0  0  0  0  0  0  0  0  0  0  0
   -5.9902   -6.6902   24.1908 C   0  0  0  0  0  0  0  0  0  0  0  0
   -7.2474   -6.0501   24.2706 C   0  0  0  0  0  0  0  0  0  0  0  0
   -7.4156   -5.8926   22.4706 C   0  0  0  0  0  0  0  0  0  0  0  0
   -6.5389   -4.5473   21.3212 C   0  0  0  0  0  0  0  0  0  0  0  0
   -5.1637   -4.1025   21.2258 O   0  0  0  0  0  0  0  0  0  0  0  0
   -8.0536   -8.4153   18.0520 H   0  0  0  0  0  0  0  0  0  0  0  0
   -9.2159   -9.2354   19.0146 H   0  0  0  0  0  0  0  0  0  0  0  0
   -7.2156  -12.4900   18.0393 H   0  0  0  0  0  0  0  0  0  0  0  0
   -9.0007  -12.1108   16.0239 H   0  0  0  0  0  0  0  0  0  0  0  0
   -8.1205  -13.5022   16.4309 H   0  0  0  0  0  0  0  0  0  0  0  0
  -10.5653  -13.8523   15.9798 H   0  0  0  0  0  0  0  0  0  0  0  0
  -10.9023  -13.1134   17.5355 H   0  0  0  0  0  0  0  0  0  0  0  0
   -9.6614  -15.6597   16.9076 H   0  0  0  0  0  0  0  0  0  0  0  0
   -7.8281  -15.1185   18.0518 H   0  0  0  0  0  0  0  0  0  0  0  0
   -8.9183  -15.6176   19.3362 H   0  0  0  0  0  0  0  0  0  0  0  0
   -7.8685  -13.5751   19.9698 H   0  0  0  0  0  0  0  0  0  0  0  0
   -9.5864  -13.2828   19.7186 H   0  0  0  0  0  0  0  0  0  0  0  0
   -5.0720   -5.9485   21.9004 H   0  0  0  0  0  0  0  0  0  0  0  0
   -4.9436   -7.5252   22.2326 H   0  0  0  0  0  0  0  0  0  0  0  0
   -4.9779   -6.3780   24.0807 H   0  0  0  0  0  0  0  0  0  0  0  0
   -5.9272   -6.1740   25.1795 H   0  0  0  0  0  0  0  0  0  0  0  0
   -7.7598   -6.8393   24.8719 H   0  0  0  0  0  0  0  0  0  0  0  0
   -7.4042   -5.0683   24.7715 H   0  0  0  0  0  0  0  0  0  0  0  0
   -8.3456   -6.2412   22.1587 H   0  0  0  0  0  0  0  0  0  0  0  0
   -6.6755   -4.9805   20.3381 H   0  0  0  0  0  0  0  0  0  0  0  0
   -7.0256   -3.5702   21.3349 H   0  0  0  0  0  0  0  0  0  0  0  0
   -5.0275   -3.8305   20.2976 H   0  0  0  0  0  0  0  0  0  0  0  0
  1  2  2  0
  2  3  1  0
  3  4  1  0
  4  5  1  0
  5  6  1  0
  6  7  1  0
  7  8  1  0
  8  9  1  0
  9 10  1  0
  2 11  1  0
 11 12  1  0
 12 13  1  0
 13 14  1  0
 14 15  1  0
 15 16  1  0
 16 17  1  0
 10  5  1  0
 15 11  1  0
  3 18  1  0
  3 19  1  0
  5 20  1  0
  6 21  1  0
  6 22  1  0
  7 23  1  0
  7 24  1  0
  8 25  1  0
  9 26  1  0
  9 27  1  0
 10 28  1  0
 10 29  1  0
 12 30  1  0
 12 31  1  0
 13 32  1  0
 13 33  1  0
 14 34  1  0
 14 35  1  0
 15 36  1  0
 16 37  1  0
 16 38  1  0
 17 39  1  0
M  END
>  <Energy>  (845) 
815.25850768121484

>  <compound_id>  (845) 
5872

>  <target_id>  (845) 
1

>  <reference_id>  (845) 
70

>  <inspiration_ids>  (845) 
[70, 9]

>  <energy_score>  (845) 
711.1875070038972

>  <distance_score>  (845) 
12.230460122631513

>  <path>  (845) 
/opt/xchem-fragalysis-2/maxwin/BulkDock/SCRATCH/511018/C5872-P70/C5872-P70.minimised.mol

>  <scratch_subdir>  (845) 
/opt/xchem-fragalysis-2/maxwin/BulkDock/SCRATCH/511018/C5872-P70

>  <fragmenstein_runtime>  (845) 
11.6441969871521

>  <fragmenstein_outcome>  (845) 
too moved

>  <fragmenstein_mode>  (845) 
expansion

>  <fragmenstein_error>  (845) 


$$$$
C5872-P9
     RDKit          3D

 39 40  0  0  0  0  0  0  0  0999 V2000
  -10.7656  -13.2187   24.2119 O   0  0  0  0  0  0  0  0  0  0  0  0
   -9.7357  -13.0994   23.5946 C   0  0  0  0  0  0  0  0  0  0  0  0
   -9.4214  -14.0857   22.3203 C   0  0  0  0  0  0  0  0  0  0  0  0
   -9.9920  -15.4167   22.2611 O   0  0  0  0  0  0  0  0  0  0  0  0
   -9.4473  -16.3114   21.2609 C   0  0  0  0  0  0  0  0  0  0  0  0
   -9.9521  -15.9943   19.8445 C   0  0  0  0  0  0  0  0  0  0  0  0
  -10.1892  -17.2470   18.9950 C   0  0  0  0  0  0  0  0  0  0  0  0
   -9.1936  -18.2755   19.2717 N   0  0  0  0  0  0  0  0  0  0  0  0
   -9.2910  -18.7780   20.6383 C   0  0  0  0  0  0  0  0  0  0  0  0
   -9.8412  -17.7504   21.6326 C   0  0  0  0  0  0  0  0  0  0  0  0
   -8.6172  -12.1804   23.7884 N   0  0  0  0  0  0  0  0  0  0  0  0
   -7.5840  -12.8001   24.7011 C   0  0  0  0  0  0  0  0  0  0  0  0
   -7.8834  -12.6708   26.1880 C   0  0  0  0  0  0  0  0  0  0  0  0
   -8.6050  -11.3747   26.2308 C   0  0  0  0  0  0  0  0  0  0  0  0
   -8.4371  -10.9764   24.7835 C   0  0  0  0  0  0  0  0  0  0  0  0
   -9.2480   -9.6697   24.5220 C   0  0  0  0  0  0  0  0  0  0  0  0
   -8.6670   -8.5387   25.2079 O   0  0  0  0  0  0  0  0  0  0  0  0
   -8.3333  -14.1765   22.2438 H   0  0  0  0  0  0  0  0  0  0  0  0
   -9.7919  -13.5486   21.4418 H   0  0  0  0  0  0  0  0  0  0  0  0
   -8.3528  -16.2403   21.2935 H   0  0  0  0  0  0  0  0  0  0  0  0
  -10.8773  -15.4067   19.8873 H   0  0  0  0  0  0  0  0  0  0  0  0
   -9.2098  -15.3513   19.3540 H   0  0  0  0  0  0  0  0  0  0  0  0
  -11.1992  -17.6301   19.1842 H   0  0  0  0  0  0  0  0  0  0  0  0
  -10.1466  -16.9687   17.9361 H   0  0  0  0  0  0  0  0  0  0  0  0
   -9.2599  -19.0430   18.6036 H   0  0  0  0  0  0  0  0  0  0  0  0
   -9.9233  -19.6716   20.6731 H   0  0  0  0  0  0  0  0  0  0  0  0
   -8.2892  -19.0901   20.9537 H   0  0  0  0  0  0  0  0  0  0  0  0
  -10.9367  -17.8206   21.6776 H   0  0  0  0  0  0  0  0  0  0  0  0
   -9.4926  -17.9845   22.6459 H   0  0  0  0  0  0  0  0  0  0  0  0
   -6.5840  -12.4217   24.4379 H   0  0  0  0  0  0  0  0  0  0  0  0
   -7.5280  -13.8711   24.4623 H   0  0  0  0  0  0  0  0  0  0  0  0
   -6.9654  -12.6782   26.7833 H   0  0  0  0  0  0  0  0  0  0  0  0
   -8.5246  -13.4864   26.5392 H   0  0  0  0  0  0  0  0  0  0  0  0
   -8.1591  -10.6617   26.9305 H   0  0  0  0  0  0  0  0  0  0  0  0
   -9.6573  -11.5196   26.4982 H   0  0  0  0  0  0  0  0  0  0  0  0
   -7.4156  -10.6273   24.6485 H   0  0  0  0  0  0  0  0  0  0  0  0
   -9.2948   -9.4287   23.4660 H   0  0  0  0  0  0  0  0  0  0  0  0
  -10.2791   -9.7833   24.8724 H   0  0  0  0  0  0  0  0  0  0  0  0
   -8.0281   -8.1197   24.5846 H   0  0  0  0  0  0  0  0  0  0  0  0
  1  2  2  0
  2  3  1  0
  3  4  1  0
  4  5  1  0
  5  6  1  0
  6  7  1  0
  7  8  1  0
  8  9  1  0
  9 10  1  0
  2 11  1  0
 11 12  1  0
 12 13  1  0
 13 14  1  0
 14 15  1  0
 15 16  1  0
 16 17  1  0
 10  5  1  0
 15 11  1  0
  3 18  1  0
  3 19  1  0
  5 20  1  0
  6 21  1  0
  6 22  1  0
  7 23  1  0
  7 24  1  0
  8 25  1  0
  9 26  1  0
  9 27  1  0
 10 28  1  0
 10 29  1  0
 12 30  1  0
 12 31  1  0
 13 32  1  0
 13 33  1  0
 14 34  1  0
 14 35  1  0
 15 36  1  0
 16 37  1  0
 16 38  1  0
 17 39  1  0
M  END
>  <Energy>  (846) 
125.98673563103524

>  <compound_id>  (846) 
5872

>  <target_id>  (846) 
1

>  <reference_id>  (846) 
9

>  <inspiration_ids>  (846) 
[70, 9]

>  <energy_score>  (846) 
21.91573495371813

>  <distance_score>  (846) 
13.647470333937397

>  <path>  (846) 
/opt/xchem-fragalysis-2/maxwin/BulkDock/SCRATCH/511018/C5872-P9/C5872-P9.minimised.mol

>  <scratch_subdir>  (846) 
/opt/xchem-fragalysis-2/maxwin/BulkDock/SCRATCH/511018/C5872-P9

>  <fragmenstein_runtime>  (846) 
16.824350595474243

>  <fragmenstein_outcome>  (846) 
too moved

>  <fragmenstein_mode>  (846) 
expansion

>  <fragmenstein_error>  (846) 


$$$$
C5874-P70
     RDKit          3D

 41 42  0  0  0  0  0  0  0  0999 V2000
   -8.4136   -8.8522   26.0554 C   0  0  0  0  0  0  0  0  0  0  0  0
   -8.6203  -10.2522   25.4317 C   0  0  0  0  0  0  0  0  0  0  0  0
   -9.5194  -10.2806   24.1507 C   0  0  0  0  0  0  0  0  0  0  0  0
  -10.7115   -9.3393   24.2322 C   0  0  0  0  0  0  0  0  0  0  0  0
  -11.7224  -10.3238   24.6889 C   0  0  0  0  0  0  0  0  0  0  0  0
  -10.9680  -11.6373   24.5196 C   0  0  0  0  0  0  0  0  0  0  0  0
   -9.9566  -11.6231   23.4161 N   0  0  0  0  0  0  0  0  0  0  0  0
   -9.2841  -12.9307   23.3223 C   0  0  0  0  0  0  0  0  0  0  0  0
   -8.2780  -13.3327   23.8554 O   0  0  0  0  0  0  0  0  0  0  0  0
  -10.0581  -13.8807   22.2036 C   0  0  0  0  0  0  0  0  0  0  0  0
   -9.5335  -15.1769   21.7907 O   0  0  0  0  0  0  0  0  0  0  0  0
  -10.1310  -15.7922   20.6134 C   0  0  0  0  0  0  0  0  0  0  0  0
  -11.4010  -16.5807   20.9684 C   0  0  0  0  0  0  0  0  0  0  0  0
  -11.7848  -17.5803   19.8723 C   0  0  0  0  0  0  0  0  0  0  0  0
  -10.7470  -18.5554   19.5598 N   0  0  0  0  0  0  0  0  0  0  0  0
   -9.4282  -18.2139   20.0837 C   0  0  0  0  0  0  0  0  0  0  0  0
   -9.0984  -16.7248   19.9343 C   0  0  0  0  0  0  0  0  0  0  0  0
   -9.3334   -8.4857   26.5202 H   0  0  0  0  0  0  0  0  0  0  0  0
   -8.0735   -8.1256   25.3196 H   0  0  0  0  0  0  0  0  0  0  0  0
   -7.6775   -8.9132   26.8638 H   0  0  0  0  0  0  0  0  0  0  0  0
   -9.0324  -10.8917   26.2184 H   0  0  0  0  0  0  0  0  0  0  0  0
   -7.6536  -10.6993   25.1776 H   0  0  0  0  0  0  0  0  0  0  0  0
   -8.8568   -9.8431   23.4018 H   0  0  0  0  0  0  0  0  0  0  0  0
  -10.6277   -8.4800   24.8955 H   0  0  0  0  0  0  0  0  0  0  0  0
  -10.9854   -8.9439   23.2515 H   0  0  0  0  0  0  0  0  0  0  0  0
  -12.6183  -10.2888   24.0599 H   0  0  0  0  0  0  0  0  0  0  0  0
  -12.0289  -10.1794   25.7295 H   0  0  0  0  0  0  0  0  0  0  0  0
  -11.7020  -12.4084   24.2459 H   0  0  0  0  0  0  0  0  0  0  0  0
  -10.5428  -12.0285   25.4547 H   0  0  0  0  0  0  0  0  0  0  0  0
  -11.0619  -14.0587   22.6045 H   0  0  0  0  0  0  0  0  0  0  0  0
  -10.1507  -13.2580   21.3077 H   0  0  0  0  0  0  0  0  0  0  0  0
  -10.3729  -14.9930   19.9016 H   0  0  0  0  0  0  0  0  0  0  0  0
  -12.2261  -15.8783   21.1371 H   0  0  0  0  0  0  0  0  0  0  0  0
  -11.2620  -17.1025   21.9246 H   0  0  0  0  0  0  0  0  0  0  0  0
  -12.0267  -17.0304   18.9551 H   0  0  0  0  0  0  0  0  0  0  0  0
  -12.6992  -18.1082   20.1662 H   0  0  0  0  0  0  0  0  0  0  0  0
  -11.0130  -19.4860   19.8794 H   0  0  0  0  0  0  0  0  0  0  0  0
   -8.6759  -18.8061   19.5521 H   0  0  0  0  0  0  0  0  0  0  0  0
   -9.3644  -18.4987   21.1412 H   0  0  0  0  0  0  0  0  0  0  0  0
   -9.0699  -16.4883   18.8622 H   0  0  0  0  0  0  0  0  0  0  0  0
   -8.0926  -16.5315   20.3254 H   0  0  0  0  0  0  0  0  0  0  0  0
  1  2  1  0
  2  3  1  0
  3  4  1  0
  4  5  1  0
  5  6  1  0
  6  7  1  0
  7  8  1  0
  8  9  2  0
  8 10  1  0
 10 11  1  0
 11 12  1  0
 12 13  1  0
 13 14  1  0
 14 15  1  0
 15 16  1  0
 16 17  1  0
  7  3  1  0
 17 12  1  0
  1 18  1  0
  1 19  1  0
  1 20  1  0
  2 21  1  0
  2 22  1  0
  3 23  1  0
  4 24  1  0
  4 25  1  0
  5 26  1  0
  5 27  1  0
  6 28  1  0
  6 29  1  0
 10 30  1  0
 10 31  1  0
 12 32  1  0
 13 33  1  0
 13 34  1  0
 14 35  1  0
 14 36  1  0
 15 37  1  0
 16 38  1  0
 16 39  1  0
 17 40  1  0
 17 41  1  0
M  END
>  <Energy>  (847) 
116.69142402995165

>  <compound_id>  (847) 
5874

>  <target_id>  (847) 
1

>  <reference_id>  (847) 
70

>  <inspiration_ids>  (847) 
[70, 9]

>  <energy_score>  (847) 
29.33096007718723

>  <distance_score>  (847) 
13.751863682393465

>  <path>  (847) 
/opt/xchem-fragalysis-2/maxwin/BulkDock/SCRATCH/511018/C5874-P70/C5874-P70.minimised.mol

>  <scratch_subdir>  (847) 
/opt/xchem-fragalysis-2/maxwin/BulkDock/SCRATCH/511018/C5874-P70

>  <fragmenstein_runtime>  (847) 
17.382468461990356

>  <fragmenstein_outcome>  (847) 
too moved

>  <fragmenstein_mode>  (847) 
expansion

>  <fragmenstein_error>  (847) 


$$$$
C5874-P9
     RDKit          3D

 41 42  0  0  0  0  0  0  0  0999 V2000
   -9.3353   -8.9469   25.6841 C   0  0  0  0  0  0  0  0  0  0  0  0
   -9.4244   -9.9473   24.5264 C   0  0  0  0  0  0  0  0  0  0  0  0
   -9.2510  -11.4812   24.8941 C   0  0  0  0  0  0  0  0  0  0  0  0
   -8.1382  -11.7443   25.9087 C   0  0  0  0  0  0  0  0  0  0  0  0
   -7.1944  -12.5209   25.0777 C   0  0  0  0  0  0  0  0  0  0  0  0
   -7.8236  -12.3009   23.7263 C   0  0  0  0  0  0  0  0  0  0  0  0
   -9.3088  -12.4832   23.6642 N   0  0  0  0  0  0  0  0  0  0  0  0
   -9.6424  -13.9136   23.6076 C   0  0  0  0  0  0  0  0  0  0  0  0
   -9.8680  -14.7008   24.4961 O   0  0  0  0  0  0  0  0  0  0  0  0
   -9.6502  -14.4348   22.0684 C   0  0  0  0  0  0  0  0  0  0  0  0
  -10.5186  -15.4929   21.6044 O   0  0  0  0  0  0  0  0  0  0  0  0
   -9.9867  -16.8248   21.4993 C   0  0  0  0  0  0  0  0  0  0  0  0
  -11.1439  -17.8093   21.7822 C   0  0  0  0  0  0  0  0  0  0  0  0
  -11.1158  -19.0702   20.9203 C   0  0  0  0  0  0  0  0  0  0  0  0
   -9.7480  -19.5489   20.7260 N   0  0  0  0  0  0  0  0  0  0  0  0
   -8.9606  -18.5715   19.9592 C   0  0  0  0  0  0  0  0  0  0  0  0
   -9.4191  -17.1101   20.1031 C   0  0  0  0  0  0  0  0  0  0  0  0
   -9.9116   -8.0503   25.4510 H   0  0  0  0  0  0  0  0  0  0  0  0
   -9.7643   -9.3714   26.5974 H   0  0  0  0  0  0  0  0  0  0  0  0
   -8.3033   -8.6546   25.8855 H   0  0  0  0  0  0  0  0  0  0  0  0
  -10.4213   -9.8471   24.0814 H   0  0  0  0  0  0  0  0  0  0  0  0
   -8.7231   -9.6436   23.7582 H   0  0  0  0  0  0  0  0  0  0  0  0
  -10.1846  -11.7316   25.4212 H   0  0  0  0  0  0  0  0  0  0  0  0
   -7.6800  -10.8436   26.3207 H   0  0  0  0  0  0  0  0  0  0  0  0
   -8.4983  -12.3466   26.7502 H   0  0  0  0  0  0  0  0  0  0  0  0
   -6.1631  -12.1641   25.1317 H   0  0  0  0  0  0  0  0  0  0  0  0
   -7.2057  -13.5813   25.3522 H   0  0  0  0  0  0  0  0  0  0  0  0
   -7.3801  -13.0223   23.0304 H   0  0  0  0  0  0  0  0  0  0  0  0
   -7.5566  -11.3312   23.3164 H   0  0  0  0  0  0  0  0  0  0  0  0
   -8.6146  -14.6777   21.8075 H   0  0  0  0  0  0  0  0  0  0  0  0
   -9.9398  -13.5654   21.4690 H   0  0  0  0  0  0  0  0  0  0  0  0
   -9.2072  -16.9633   22.2595 H   0  0  0  0  0  0  0  0  0  0  0  0
  -11.0931  -18.0909   22.8424 H   0  0  0  0  0  0  0  0  0  0  0  0
  -12.1147  -17.3136   21.6557 H   0  0  0  0  0  0  0  0  0  0  0  0
  -11.5964  -18.8735   19.9559 H   0  0  0  0  0  0  0  0  0  0  0  0
  -11.7085  -19.8551   21.4031 H   0  0  0  0  0  0  0  0  0  0  0  0
   -9.3167  -19.6650   21.6443 H   0  0  0  0  0  0  0  0  0  0  0  0
   -7.9151  -18.6550   20.2790 H   0  0  0  0  0  0  0  0  0  0  0  0
   -8.9764  -18.8473   18.8994 H   0  0  0  0  0  0  0  0  0  0  0  0
  -10.1858  -16.8826   19.3502 H   0  0  0  0  0  0  0  0  0  0  0  0
   -8.5861  -16.4309   19.8873 H   0  0  0  0  0  0  0  0  0  0  0  0
  1  2  1  0
  2  3  1  0
  3  4  1  0
  4  5  1  0
  5  6  1  0
  6  7  1  0
  7  8  1  0
  8  9  2  0
  8 10  1  0
 10 11  1  0
 11 12  1  0
 12 13  1  0
 13 14  1  0
 14 15  1  0
 15 16  1  0
 16 17  1  0
  7  3  1  0
 17 12  1  0
  1 18  1  0
  1 19  1  0
  1 20  1  0
  2 21  1  0
  2 22  1  0
  3 23  1  0
  4 24  1  0
  4 25  1  0
  5 26  1  0
  5 27  1  0
  6 28  1  0
  6 29  1  0
 10 30  1  0
 10 31  1  0
 12 32  1  0
 13 33  1  0
 13 34  1  0
 14 35  1  0
 14 36  1  0
 15 37  1  0
 16 38  1  0
 16 39  1  0
 17 40  1  0
 17 41  1  0
M  END
>  <Energy>  (848) 
113.54161955277326

>  <compound_id>  (848) 
5874

>  <target_id>  (848) 
1

>  <reference_id>  (848) 
9

>  <inspiration_ids>  (848) 
[70, 9]

>  <energy_score>  (848) 
26.18115560000888

>  <distance_score>  (848) 
13.663527251049613

>  <path>  (848) 
/opt/xchem-fragalysis-2/maxwin/BulkDock/SCRATCH/511018/C5874-P9/C5874-P9.minimised.mol

>  <scratch_subdir>  (848) 
/opt/xchem-fragalysis-2/maxwin/BulkDock/SCRATCH/511018/C5874-P9

>  <fragmenstein_runtime>  (848) 
20.834943771362305

>  <fragmenstein_outcome>  (848) 
too moved

>  <fragmenstein_mode>  (848) 
expansion

>  <fragmenstein_error>  (848) 


$$$$
C5875-P70
     RDKit          3D

 42 43  0  0  0  0  0  0  0  0999 V2000
   -1.9746    1.2884   22.3102 C   0  0  0  0  0  0  0  0  0  0  0  0
   -2.9909   -0.3178   21.9738 N   0  0  0  0  0  0  0  0  0  0  0  0
   -2.6693   -1.8775   22.3307 C   0  0  0  0  0  0  0  0  0  0  0  0
   -1.6830   -2.3744   22.8051 O   0  0  0  0  0  0  0  0  0  0  0  0
   -4.0497   -3.0339   22.1025 C   0  0  0  0  0  0  0  0  0  0  0  0
   -4.1864   -2.8727   24.0601 C   0  0  0  0  0  0  0  0  0  0  0  0
   -6.1591   -2.7166   24.1714 C   0  0  0  0  0  0  0  0  0  0  0  0
   -6.2319   -2.8385   22.1943 C   0  0  0  0  0  0  0  0  0  0  0  0
   -5.4906   -2.7521   20.9564 N   0  0  0  0  0  0  0  0  0  0  0  0
   -5.4365   -3.6498   19.8491 C   0  0  0  0  0  0  0  0  0  0  0  0
   -5.9273   -4.7132   19.7663 O   0  0  0  0  0  0  0  0  0  0  0  0
   -4.7718   -3.2518   18.4480 C   0  0  0  0  0  0  0  0  0  0  0  0
   -4.6252   -4.4276   17.4836 O   0  0  0  0  0  0  0  0  0  0  0  0
   -5.5832   -4.8752   16.4479 C   0  0  0  0  0  0  0  0  0  0  0  0
   -4.9154   -6.0042   15.5850 C   0  0  0  0  0  0  0  0  0  0  0  0
   -5.4886   -7.4305   15.6724 C   0  0  0  0  0  0  0  0  0  0  0  0
   -6.9400   -7.4544   15.5289 N   0  0  0  0  0  0  0  0  0  0  0  0
   -7.5181   -6.7193   16.6474 C   0  0  0  0  0  0  0  0  0  0  0  0
   -7.0591   -5.2461   16.7839 C   0  0  0  0  0  0  0  0  0  0  0  0
   -1.1610    1.3674   23.0551 H   0  0  0  0  0  0  0  0  0  0  0  0
   -1.4216    1.8147   21.5703 H   0  0  0  0  0  0  0  0  0  0  0  0
   -2.7194    2.0595   22.6019 H   0  0  0  0  0  0  0  0  0  0  0  0
   -3.9333   -0.2369   21.6287 H   0  0  0  0  0  0  0  0  0  0  0  0
   -3.6546   -4.0005   21.8137 H   0  0  0  0  0  0  0  0  0  0  0  0
   -3.5985   -3.7028   24.4372 H   0  0  0  0  0  0  0  0  0  0  0  0
   -3.6360   -2.0840   24.5621 H   0  0  0  0  0  0  0  0  0  0  0  0
   -6.7638   -3.5467   24.5849 H   0  0  0  0  0  0  0  0  0  0  0  0
   -6.6760   -1.9082   24.7280 H   0  0  0  0  0  0  0  0  0  0  0  0
   -6.5641   -3.8733   22.0719 H   0  0  0  0  0  0  0  0  0  0  0  0
   -7.2441   -2.5641   21.8121 H   0  0  0  0  0  0  0  0  0  0  0  0
   -5.3845   -2.4946   17.9528 H   0  0  0  0  0  0  0  0  0  0  0  0
   -3.7644   -2.8792   18.6250 H   0  0  0  0  0  0  0  0  0  0  0  0
   -5.6356   -3.9887   15.8015 H   0  0  0  0  0  0  0  0  0  0  0  0
   -5.0073   -5.6920   14.5350 H   0  0  0  0  0  0  0  0  0  0  0  0
   -3.8400   -6.0427   15.7973 H   0  0  0  0  0  0  0  0  0  0  0  0
   -5.1880   -7.9102   16.6053 H   0  0  0  0  0  0  0  0  0  0  0  0
   -5.0489   -8.0348   14.8705 H   0  0  0  0  0  0  0  0  0  0  0  0
   -7.2005   -7.0030   14.6533 H   0  0  0  0  0  0  0  0  0  0  0  0
   -8.6099   -6.7333   16.5459 H   0  0  0  0  0  0  0  0  0  0  0  0
   -7.3113   -7.2591   17.5651 H   0  0  0  0  0  0  0  0  0  0  0  0
   -7.6754   -4.6849   16.0661 H   0  0  0  0  0  0  0  0  0  0  0  0
   -7.3454   -4.8629   17.7666 H   0  0  0  0  0  0  0  0  0  0  0  0
  1  2  1  0
  2  3  1  0
  3  4  2  0
  3  5  1  0
  5  6  1  0
  6  7  1  0
  7  8  1  0
  8  9  1  0
  9 10  1  0
 10 11  2  0
 10 12  1  0
 12 13  1  0
 13 14  1  0
 14 15  1  0
 15 16  1  0
 16 17  1  0
 17 18  1  0
 18 19  1  0
  9  5  1  0
 19 14  1  0
  1 20  1  0
  1 21  1  0
  1 22  1  0
  2 23  1  0
  5 24  1  0
  6 25  1  0
  6 26  1  0
  7 27  1  0
  7 28  1  0
  8 29  1  0
  8 30  1  0
 12 31  1  0
 12 32  1  0
 14 33  1  0
 15 34  1  0
 15 35  1  0
 16 36  1  0
 16 37  1  0
 17 38  1  0
 18 39  1  0
 18 40  1  0
 19 41  1  0
 19 42  1  0
M  END
>  <Energy>  (849) 
474.33237724511474

>  <compound_id>  (849) 
5875

>  <target_id>  (849) 
1

>  <reference_id>  (849) 
70

>  <inspiration_ids>  (849) 
[70, 9]

>  <energy_score>  (849) 
397.2711651752642

>  <distance_score>  (849) 
15.66956079370307

>  <path>  (849) 
/opt/xchem-fragalysis-2/maxwin/BulkDock/SCRATCH/511018/C5875-P70/C5875-P70.minimised.mol

>  <scratch_subdir>  (849) 
/opt/xchem-fragalysis-2/maxwin/BulkDock/SCRATCH/511018/C5875-P70

>  <fragmenstein_runtime>  (849) 
16.601282596588135

>  <fragmenstein_outcome>  (849) 
too moved

>  <fragmenstein_mode>  (849) 
expansion

>  <fragmenstein_error>  (849) 


$$$$
C5875-P9
     RDKit          3D

 42 43  0  0  0  0  0  0  0  0999 V2000
   -3.8278   -0.4204   21.3991 C   0  0  0  0  0  0  0  0  0  0  0  0
   -4.3250   -1.7392   20.8306 N   0  0  0  0  0  0  0  0  0  0  0  0
   -5.0888   -2.0741   19.4499 C   0  0  0  0  0  0  0  0  0  0  0  0
   -5.3574   -1.3553   18.5111 O   0  0  0  0  0  0  0  0  0  0  0  0
   -5.7728   -3.7660   19.3387 C   0  0  0  0  0  0  0  0  0  0  0  0
   -5.9322   -3.5583   20.8786 C   0  0  0  0  0  0  0  0  0  0  0  0
   -4.6051   -4.0643   21.2776 C   0  0  0  0  0  0  0  0  0  0  0  0
   -4.7079   -5.2147   20.5503 C   0  0  0  0  0  0  0  0  0  0  0  0
   -6.0445   -5.5292   19.7507 N   0  0  0  0  0  0  0  0  0  0  0  0
   -6.3605   -6.7416   18.1382 C   0  0  0  0  0  0  0  0  0  0  0  0
   -5.5310   -7.3408   17.4939 O   0  0  0  0  0  0  0  0  0  0  0  0
   -8.0251   -7.1768   17.5634 C   0  0  0  0  0  0  0  0  0  0  0  0
   -9.2235   -7.7758   18.0943 O   0  0  0  0  0  0  0  0  0  0  0  0
  -10.5211   -7.4710   17.4478 C   0  0  0  0  0  0  0  0  0  0  0  0
  -11.7142   -8.0846   18.2102 C   0  0  0  0  0  0  0  0  0  0  0  0
  -12.1803   -9.4696   17.7597 C   0  0  0  0  0  0  0  0  0  0  0  0
  -12.5619   -9.4769   16.3543 N   0  0  0  0  0  0  0  0  0  0  0  0
  -11.5544   -8.9393   15.4483 C   0  0  0  0  0  0  0  0  0  0  0  0
  -10.7562   -7.6917   15.9197 C   0  0  0  0  0  0  0  0  0  0  0  0
   -2.8062   -0.1116   21.6315 H   0  0  0  0  0  0  0  0  0  0  0  0
   -3.4449   -1.1441   22.1070 H   0  0  0  0  0  0  0  0  0  0  0  0
   -4.4576    0.4255   21.5075 H   0  0  0  0  0  0  0  0  0  0  0  0
   -4.3417   -2.4926   21.3952 H   0  0  0  0  0  0  0  0  0  0  0  0
   -4.9369   -3.9913   18.6523 H   0  0  0  0  0  0  0  0  0  0  0  0
   -6.6139   -4.1720   21.4153 H   0  0  0  0  0  0  0  0  0  0  0  0
   -6.3464   -2.6067   21.1570 H   0  0  0  0  0  0  0  0  0  0  0  0
   -3.7445   -3.6859   20.7235 H   0  0  0  0  0  0  0  0  0  0  0  0
   -4.0707   -4.0258   22.2128 H   0  0  0  0  0  0  0  0  0  0  0  0
   -4.5657   -5.9113   21.3936 H   0  0  0  0  0  0  0  0  0  0  0  0
   -3.9077   -5.0428   19.7937 H   0  0  0  0  0  0  0  0  0  0  0  0
   -8.2877   -6.3971   16.8276 H   0  0  0  0  0  0  0  0  0  0  0  0
   -7.6914   -7.9634   16.8719 H   0  0  0  0  0  0  0  0  0  0  0  0
  -10.6005   -6.3860   17.6034 H   0  0  0  0  0  0  0  0  0  0  0  0
  -11.5272   -8.0758   19.2820 H   0  0  0  0  0  0  0  0  0  0  0  0
  -12.5680   -7.4043   18.0703 H   0  0  0  0  0  0  0  0  0  0  0  0
  -11.4550  -10.2420   18.0055 H   0  0  0  0  0  0  0  0  0  0  0  0
  -13.0736   -9.7271   18.3419 H   0  0  0  0  0  0  0  0  0  0  0  0
  -12.8207  -10.4204   16.0675 H   0  0  0  0  0  0  0  0  0  0  0  0
  -10.8761   -9.7220   15.1047 H   0  0  0  0  0  0  0  0  0  0  0  0
  -12.0796   -8.6522   14.5274 H   0  0  0  0  0  0  0  0  0  0  0  0
   -9.8194   -7.6149   15.3565 H   0  0  0  0  0  0  0  0  0  0  0  0
  -11.3582   -6.8304   15.5927 H   0  0  0  0  0  0  0  0  0  0  0  0
  1  2  1  0
  2  3  1  0
  3  4  2  0
  3  5  1  0
  5  6  1  0
  6  7  1  0
  7  8  1  0
  8  9  1  0
  9 10  1  0
 10 11  2  0
 10 12  1  0
 12 13  1  0
 13 14  1  0
 14 15  1  0
 15 16  1  0
 16 17  1  0
 17 18  1  0
 18 19  1  0
  9  5  1  0
 19 14  1  0
  1 20  1  0
  1 21  1  0
  1 22  1  0
  2 23  1  0
  5 24  1  0
  6 25  1  0
  6 26  1  0
  7 27  1  0
  7 28  1  0
  8 29  1  0
  8 30  1  0
 12 31  1  0
 12 32  1  0
 14 33  1  0
 15 34  1  0
 15 35  1  0
 16 36  1  0
 16 37  1  0
 17 38  1  0
 18 39  1  0
 18 40  1  0
 19 41  1  0
 19 42  1  0
M  END
>  <Energy>  (850) 
626.78528225740115

>  <compound_id>  (850) 
5875

>  <target_id>  (850) 
1

>  <reference_id>  (850) 
9

>  <inspiration_ids>  (850) 
[70, 9]

>  <energy_score>  (850) 
549.7240701875564

>  <distance_score>  (850) 
14.109614242708524

>  <path>  (850) 
/opt/xchem-fragalysis-2/maxwin/BulkDock/SCRATCH/511018/C5875-P9/C5875-P9.minimised.mol

>  <scratch_subdir>  (850) 
/opt/xchem-fragalysis-2/maxwin/BulkDock/SCRATCH/511018/C5875-P9

>  <fragmenstein_runtime>  (850) 
16.69767475128174

>  <fragmenstein_outcome>  (850) 
too moved

>  <fragmenstein_mode>  (850) 
expansion

>  <fragmenstein_error>  (850) 


$$$$
C5881-P70
     RDKit          3D

 38 39  0  0  0  0  0  0  0  0999 V2000
   -2.8129   -9.2837   21.1035 C   0  0  0  0  0  0  0  0  0  0  0  0
   -2.8247  -10.1083   19.7441 C   0  0  0  0  0  0  0  0  0  0  0  0
   -1.8162   -9.4960   18.8715 C   0  0  0  0  0  0  0  0  0  0  0  0
   -1.7492  -10.6781   18.0356 C   0  0  0  0  0  0  0  0  0  0  0  0
   -2.4371  -11.9224   18.6743 C   0  0  0  0  0  0  0  0  0  0  0  0
   -3.8233  -11.3870   19.1599 N   0  0  0  0  0  0  0  0  0  0  0  0
   -4.9789  -11.4195   17.8530 C   0  0  0  0  0  0  0  0  0  0  0  0
   -5.2586  -10.5413   17.0009 O   0  0  0  0  0  0  0  0  0  0  0  0
   -6.1530  -12.8694   17.6828 C   0  0  0  0  0  0  0  0  0  0  0  0
   -6.4108  -13.9721   16.7455 O   0  0  0  0  0  0  0  0  0  0  0  0
   -7.5703  -14.8127   17.0578 C   0  0  0  0  0  0  0  0  0  0  0  0
   -8.1593  -15.4334   15.7828 C   0  0  0  0  0  0  0  0  0  0  0  0
   -9.3972  -16.2784   16.1231 C   0  0  0  0  0  0  0  0  0  0  0  0
   -9.2493  -17.1493   17.2946 N   0  0  0  0  0  0  0  0  0  0  0  0
   -7.8663  -17.2953   17.7145 C   0  0  0  0  0  0  0  0  0  0  0  0
   -7.2289  -15.9510   18.0452 C   0  0  0  0  0  0  0  0  0  0  0  0
   -3.0316   -8.2275   20.9451 H   0  0  0  0  0  0  0  0  0  0  0  0
   -1.8000   -9.2776   21.5369 H   0  0  0  0  0  0  0  0  0  0  0  0
   -3.4493   -9.7209   21.8678 H   0  0  0  0  0  0  0  0  0  0  0  0
   -2.2231  -10.8195   20.3516 H   0  0  0  0  0  0  0  0  0  0  0  0
   -2.1807   -8.6089   18.3512 H   0  0  0  0  0  0  0  0  0  0  0  0
   -0.8665   -9.2712   19.3662 H   0  0  0  0  0  0  0  0  0  0  0  0
   -2.4719  -10.3102   17.3008 H   0  0  0  0  0  0  0  0  0  0  0  0
   -0.7433  -10.8753   17.6565 H   0  0  0  0  0  0  0  0  0  0  0  0
   -1.8795  -12.4162   19.4810 H   0  0  0  0  0  0  0  0  0  0  0  0
   -2.4386  -12.5930   17.8142 H   0  0  0  0  0  0  0  0  0  0  0  0
   -6.4704  -13.2514   18.6342 H   0  0  0  0  0  0  0  0  0  0  0  0
   -7.0847  -12.2642   17.6521 H   0  0  0  0  0  0  0  0  0  0  0  0
   -8.3430  -14.1689   17.4990 H   0  0  0  0  0  0  0  0  0  0  0  0
   -7.3966  -16.0380   15.2758 H   0  0  0  0  0  0  0  0  0  0  0  0
   -8.4331  -14.6451   15.0731 H   0  0  0  0  0  0  0  0  0  0  0  0
  -10.2390  -15.6055   16.3254 H   0  0  0  0  0  0  0  0  0  0  0  0
   -9.6906  -16.8638   15.2463 H   0  0  0  0  0  0  0  0  0  0  0  0
   -9.5995  -18.0786   17.0652 H   0  0  0  0  0  0  0  0  0  0  0  0
   -7.8223  -17.9422   18.5980 H   0  0  0  0  0  0  0  0  0  0  0  0
   -7.2654  -17.7875   16.9437 H   0  0  0  0  0  0  0  0  0  0  0  0
   -7.5436  -15.6378   19.0482 H   0  0  0  0  0  0  0  0  0  0  0  0
   -6.1528  -16.1287   18.0922 H   0  0  0  0  0  0  0  0  0  0  0  0
  1  2  1  0
  2  3  1  0
  3  4  1  0
  4  5  1  0
  5  6  1  0
  6  7  1  0
  7  8  2  0
  7  9  1  0
  9 10  1  0
 10 11  1  0
 11 12  1  0
 12 13  1  0
 13 14  1  0
 14 15  1  0
 15 16  1  0
  6  2  1  0
 16 11  1  0
  1 17  1  0
  1 18  1  0
  1 19  1  0
  2 20  1  0
  3 21  1  0
  3 22  1  0
  4 23  1  0
  4 24  1  0
  5 25  1  0
  5 26  1  0
  9 27  1  0
  9 28  1  0
 11 29  1  0
 12 30  1  0
 12 31  1  0
 13 32  1  0
 13 33  1  0
 14 34  1  0
 15 35  1  0
 15 36  1  0
 16 37  1  0
 16 38  1  0
M  END
>  <Energy>  (851) 
258.46562763714439

>  <compound_id>  (851) 
5881

>  <target_id>  (851) 
1

>  <reference_id>  (851) 
70

>  <inspiration_ids>  (851) 
[70, 9]

>  <energy_score>  (851) 
187.23477993385234

>  <distance_score>  (851) 
13.211490338517216

>  <path>  (851) 
/opt/xchem-fragalysis-2/maxwin/BulkDock/SCRATCH/511018/C5881-P70/C5881-P70.minimised.mol

>  <scratch_subdir>  (851) 
/opt/xchem-fragalysis-2/maxwin/BulkDock/SCRATCH/511018/C5881-P70

>  <fragmenstein_runtime>  (851) 
11.48127818107605

>  <fragmenstein_outcome>  (851) 
too moved

>  <fragmenstein_mode>  (851) 
expansion

>  <fragmenstein_error>  (851) 


$$$$
C5881-P9
     RDKit          3D

 38 39  0  0  0  0  0  0  0  0999 V2000
   -0.7123  -10.9265   16.4252 C   0  0  0  0  0  0  0  0  0  0  0  0
   -0.9395  -11.7618   17.6873 C   0  0  0  0  0  0  0  0  0  0  0  0
    0.1021  -11.3746   18.7384 C   0  0  0  0  0  0  0  0  0  0  0  0
    0.2395  -12.6804   19.3983 C   0  0  0  0  0  0  0  0  0  0  0  0
   -0.0210  -13.4919   18.1504 C   0  0  0  0  0  0  0  0  0  0  0  0
   -1.3483  -13.2692   17.4919 N   0  0  0  0  0  0  0  0  0  0  0  0
   -1.4486  -14.0780   16.2847 C   0  0  0  0  0  0  0  0  0  0  0  0
   -1.1563  -13.8202   15.1429 O   0  0  0  0  0  0  0  0  0  0  0  0
   -2.1603  -15.4613   16.6175 C   0  0  0  0  0  0  0  0  0  0  0  0
   -3.1612  -15.9364   15.6887 O   0  0  0  0  0  0  0  0  0  0  0  0
   -2.9350  -17.2452   15.1422 C   0  0  0  0  0  0  0  0  0  0  0  0
   -3.7074  -17.3910   13.8171 C   0  0  0  0  0  0  0  0  0  0  0  0
   -4.9214  -18.2975   13.9433 C   0  0  0  0  0  0  0  0  0  0  0  0
   -4.5979  -19.6272   14.4481 N   0  0  0  0  0  0  0  0  0  0  0  0
   -3.5036  -19.6597   15.4219 C   0  0  0  0  0  0  0  0  0  0  0  0
   -3.3307  -18.3332   16.1446 C   0  0  0  0  0  0  0  0  0  0  0  0
   -1.5823  -10.9599   15.7654 H   0  0  0  0  0  0  0  0  0  0  0  0
    0.1444  -11.3088   15.8601 H   0  0  0  0  0  0  0  0  0  0  0  0
   -0.5117   -9.8821   16.6791 H   0  0  0  0  0  0  0  0  0  0  0  0
   -1.8933  -11.3732   18.0766 H   0  0  0  0  0  0  0  0  0  0  0  0
    1.0501  -11.0750   18.2726 H   0  0  0  0  0  0  0  0  0  0  0  0
   -0.2139  -10.5561   19.3788 H   0  0  0  0  0  0  0  0  0  0  0  0
    1.2343  -12.8492   19.8185 H   0  0  0  0  0  0  0  0  0  0  0  0
   -0.5119  -12.8862   20.1619 H   0  0  0  0  0  0  0  0  0  0  0  0
    0.7879  -13.4025   17.4031 H   0  0  0  0  0  0  0  0  0  0  0  0
   -0.0079  -14.5547   18.4308 H   0  0  0  0  0  0  0  0  0  0  0  0
   -1.3577  -16.1982   16.7404 H   0  0  0  0  0  0  0  0  0  0  0  0
   -2.6668  -15.3618   17.5840 H   0  0  0  0  0  0  0  0  0  0  0  0
   -1.8675  -17.3305   14.8990 H   0  0  0  0  0  0  0  0  0  0  0  0
   -4.0152  -16.4092   13.4384 H   0  0  0  0  0  0  0  0  0  0  0  0
   -3.0341  -17.8223   13.0643 H   0  0  0  0  0  0  0  0  0  0  0  0
   -5.4097  -18.3935   12.9674 H   0  0  0  0  0  0  0  0  0  0  0  0
   -5.6475  -17.8216   14.6119 H   0  0  0  0  0  0  0  0  0  0  0  0
   -4.3664  -20.2667   13.6767 H   0  0  0  0  0  0  0  0  0  0  0  0
   -2.5704  -19.9156   14.9045 H   0  0  0  0  0  0  0  0  0  0  0  0
   -3.6802  -20.4522   16.1554 H   0  0  0  0  0  0  0  0  0  0  0  0
   -2.5548  -18.4216   16.9143 H   0  0  0  0  0  0  0  0  0  0  0  0
   -4.2480  -18.0542   16.6793 H   0  0  0  0  0  0  0  0  0  0  0  0
  1  2  1  0
  2  3  1  0
  3  4  1  0
  4  5  1  0
  5  6  1  0
  6  7  1  0
  7  8  2  0
  7  9  1  0
  9 10  1  0
 10 11  1  0
 11 12  1  0
 12 13  1  0
 13 14  1  0
 14 15  1  0
 15 16  1  0
  6  2  1  0
 16 11  1  0
  1 17  1  0
  1 18  1  0
  1 19  1  0
  2 20  1  0
  3 21  1  0
  3 22  1  0
  4 23  1  0
  4 24  1  0
  5 25  1  0
  5 26  1  0
  9 27  1  0
  9 28  1  0
 11 29  1  0
 12 30  1  0
 12 31  1  0
 13 32  1  0
 13 33  1  0
 14 34  1  0
 15 35  1  0
 15 36  1  0
 16 37  1  0
 16 38  1  0
M  END
>  <Energy>  (852) 
111.64234977276945

>  <compound_id>  (852) 
5881

>  <target_id>  (852) 
1

>  <reference_id>  (852) 
9

>  <inspiration_ids>  (852) 
[70, 9]

>  <energy_score>  (852) 
40.41150206947589

>  <distance_score>  (852) 
14.698458478218988

>  <path>  (852) 
/opt/xchem-fragalysis-2/maxwin/BulkDock/SCRATCH/511018/C5881-P9/C5881-P9.minimised.mol

>  <scratch_subdir>  (852) 
/opt/xchem-fragalysis-2/maxwin/BulkDock/SCRATCH/511018/C5881-P9

>  <fragmenstein_runtime>  (852) 
13.419116258621216

>  <fragmenstein_outcome>  (852) 
too moved

>  <fragmenstein_mode>  (852) 
expansion

>  <fragmenstein_error>  (852) 


$$$$
C5882-P70
     RDKit          3D

 47 48  0  0  0  0  0  0  0  0999 V2000
   -2.0763    1.1529   22.2893 C   0  0  0  0  0  0  0  0  0  0  0  0
   -3.3969   -0.3868   21.8057 C   0  0  0  0  0  0  0  0  0  0  0  0
   -4.3430    1.5555   21.8317 C   0  0  0  0  0  0  0  0  0  0  0  0
   -3.3254   -2.6082   21.9151 C   0  0  0  0  0  0  0  0  0  0  0  0
   -3.6852   -4.7662   21.7544 C   0  0  0  0  0  0  0  0  0  0  0  0
   -2.8829   -4.6055   23.3312 C   0  0  0  0  0  0  0  0  0  0  0  0
   -3.2671   -6.0599   23.4798 C   0  0  0  0  0  0  0  0  0  0  0  0
   -4.7799   -6.4763   22.0849 C   0  0  0  0  0  0  0  0  0  0  0  0
   -3.7005   -6.9278   21.6587 N   0  0  0  0  0  0  0  0  0  0  0  0
   -3.2728   -8.0861   20.2127 C   0  0  0  0  0  0  0  0  0  0  0  0
   -3.0124   -7.6762   19.1079 O   0  0  0  0  0  0  0  0  0  0  0  0
   -3.3670  -10.1026   20.1504 C   0  0  0  0  0  0  0  0  0  0  0  0
   -4.1541  -11.4296   19.0412 O   0  0  0  0  0  0  0  0  0  0  0  0
   -5.5730  -12.0487   17.9176 C   0  0  0  0  0  0  0  0  0  0  0  0
   -7.0161  -12.3421   18.4927 C   0  0  0  0  0  0  0  0  0  0  0  0
   -7.9342  -13.5935   18.4154 C   0  0  0  0  0  0  0  0  0  0  0  0
   -7.9861  -14.3225   17.1694 N   0  0  0  0  0  0  0  0  0  0  0  0
   -6.6492  -14.8121   16.9422 C   0  0  0  0  0  0  0  0  0  0  0  0
   -5.6220  -13.5750   16.7525 C   0  0  0  0  0  0  0  0  0  0  0  0
   -2.5156    2.0108   22.8514 H   0  0  0  0  0  0  0  0  0  0  0  0
   -1.2020    1.1430   22.9586 H   0  0  0  0  0  0  0  0  0  0  0  0
   -1.5463    1.7618   21.5905 H   0  0  0  0  0  0  0  0  0  0  0  0
   -2.5841   -0.7732   22.3715 H   0  0  0  0  0  0  0  0  0  0  0  0
   -3.7729    2.5090   21.9922 H   0  0  0  0  0  0  0  0  0  0  0  0
   -5.2976    1.9515   22.2177 H   0  0  0  0  0  0  0  0  0  0  0  0
   -4.6674    1.8621   20.7707 H   0  0  0  0  0  0  0  0  0  0  0  0
   -3.3342   -2.7893   20.8574 H   0  0  0  0  0  0  0  0  0  0  0  0
   -2.3762   -2.6549   22.4523 H   0  0  0  0  0  0  0  0  0  0  0  0
   -4.7311   -4.5409   21.4578 H   0  0  0  0  0  0  0  0  0  0  0  0
   -1.8102   -4.4678   23.4266 H   0  0  0  0  0  0  0  0  0  0  0  0
   -3.3208   -3.8676   24.0193 H   0  0  0  0  0  0  0  0  0  0  0  0
   -2.2909   -6.5944   23.4872 H   0  0  0  0  0  0  0  0  0  0  0  0
   -3.5862   -5.9423   24.5368 H   0  0  0  0  0  0  0  0  0  0  0  0
   -4.8924   -7.5483   22.1847 H   0  0  0  0  0  0  0  0  0  0  0  0
   -5.4209   -6.6340   22.9489 H   0  0  0  0  0  0  0  0  0  0  0  0
   -2.3316  -10.3708   19.9074 H   0  0  0  0  0  0  0  0  0  0  0  0
   -3.5625  -10.4320   21.1519 H   0  0  0  0  0  0  0  0  0  0  0  0
   -5.5727  -11.1863   17.2518 H   0  0  0  0  0  0  0  0  0  0  0  0
   -7.6249  -11.5344   18.1050 H   0  0  0  0  0  0  0  0  0  0  0  0
   -6.8656  -12.2256   19.5414 H   0  0  0  0  0  0  0  0  0  0  0  0
   -7.6925  -14.2881   19.2277 H   0  0  0  0  0  0  0  0  0  0  0  0
   -8.9598  -13.2735   18.6379 H   0  0  0  0  0  0  0  0  0  0  0  0
   -8.2759  -13.6964   16.4211 H   0  0  0  0  0  0  0  0  0  0  0  0
   -6.4001  -15.5586   17.7068 H   0  0  0  0  0  0  0  0  0  0  0  0
   -6.6509  -15.3962   16.0097 H   0  0  0  0  0  0  0  0  0  0  0  0
   -6.0299  -13.5051   15.7979 H   0  0  0  0  0  0  0  0  0  0  0  0
   -4.6180  -13.8618   16.3825 H   0  0  0  0  0  0  0  0  0  0  0  0
  1  2  1  0
  2  3  1  0
  2  4  1  0
  4  5  1  0
  5  6  1  0
  6  7  1  0
  7  8  1  0
  8  9  1  0
  9 10  1  0
 10 11  2  0
 10 12  1  0
 12 13  1  0
 13 14  1  0
 14 15  1  0
 15 16  1  0
 16 17  1  0
 17 18  1  0
 18 19  1  0
  9  5  1  0
 19 14  1  0
  1 20  1  0
  1 21  1  0
  1 22  1  0
  2 23  1  0
  3 24  1  0
  3 25  1  0
  3 26  1  0
  4 27  1  0
  4 28  1  0
  5 29  1  0
  6 30  1  0
  6 31  1  0
  7 32  1  0
  7 33  1  0
  8 34  1  0
  8 35  1  0
 12 36  1  0
 12 37  1  0
 14 38  1  0
 15 39  1  0
 15 40  1  0
 16 41  1  0
 16 42  1  0
 17 43  1  0
 18 44  1  0
 18 45  1  0
 19 46  1  0
 19 47  1  0
M  END
>  <Energy>  (853) 
1733.0962905191791

>  <compound_id>  (853) 
5882

>  <target_id>  (853) 
1

>  <reference_id>  (853) 
70

>  <inspiration_ids>  (853) 
[70, 9]

>  <energy_score>  (853) 
1656.379766198197

>  <distance_score>  (853) 
12.196483103087072

>  <path>  (853) 
/opt/xchem-fragalysis-2/maxwin/BulkDock/SCRATCH/511018/C5882-P70/C5882-P70.minimised.mol

>  <scratch_subdir>  (853) 
/opt/xchem-fragalysis-2/maxwin/BulkDock/SCRATCH/511018/C5882-P70

>  <fragmenstein_runtime>  (853) 
15.88584017753601

>  <fragmenstein_outcome>  (853) 
too moved

>  <fragmenstein_mode>  (853) 
expansion

>  <fragmenstein_error>  (853) 


$$$$
C5882-P9
     RDKit          3D

 47 48  0  0  0  0  0  0  0  0999 V2000
   -5.4159  -15.1922   17.5836 C   0  0  0  0  0  0  0  0  0  0  0  0
   -6.9377  -15.0918   17.7583 C   0  0  0  0  0  0  0  0  0  0  0  0
   -7.3949  -16.2981   18.6032 C   0  0  0  0  0  0  0  0  0  0  0  0
   -7.5938  -15.2144   16.3615 C   0  0  0  0  0  0  0  0  0  0  0  0
   -9.0953  -14.8303   16.1280 C   0  0  0  0  0  0  0  0  0  0  0  0
   -9.6685  -14.0604   17.3135 C   0  0  0  0  0  0  0  0  0  0  0  0
  -11.1116  -14.2406   17.0461 C   0  0  0  0  0  0  0  0  0  0  0  0
  -11.0617  -15.0875   15.7797 C   0  0  0  0  0  0  0  0  0  0  0  0
   -9.9251  -16.0853   15.6990 N   0  0  0  0  0  0  0  0  0  0  0  0
   -9.9746  -16.8125   14.4113 C   0  0  0  0  0  0  0  0  0  0  0  0
   -9.4551  -16.5619   13.3515 O   0  0  0  0  0  0  0  0  0  0  0  0
  -10.8258  -18.2539   14.5910 C   0  0  0  0  0  0  0  0  0  0  0  0
  -10.5395  -19.7268   13.7082 O   0  0  0  0  0  0  0  0  0  0  0  0
  -10.2765  -21.2928   13.6878 C   0  0  0  0  0  0  0  0  0  0  0  0
   -9.4847  -21.9509   12.4939 C   0  0  0  0  0  0  0  0  0  0  0  0
  -10.1727  -23.3103   12.1671 C   0  0  0  0  0  0  0  0  0  0  0  0
   -9.6875  -24.2699   13.1307 N   0  0  0  0  0  0  0  0  0  0  0  0
  -10.0453  -23.7635   14.4448 C   0  0  0  0  0  0  0  0  0  0  0  0
   -9.6317  -22.2669   14.7425 C   0  0  0  0  0  0  0  0  0  0  0  0
   -5.1361  -16.0997   17.0363 H   0  0  0  0  0  0  0  0  0  0  0  0
   -5.0315  -14.3361   17.0271 H   0  0  0  0  0  0  0  0  0  0  0  0
   -4.9008  -15.2185   18.5448 H   0  0  0  0  0  0  0  0  0  0  0  0
   -7.1759  -14.1438   18.2491 H   0  0  0  0  0  0  0  0  0  0  0  0
   -8.4585  -16.2536   18.8474 H   0  0  0  0  0  0  0  0  0  0  0  0
   -6.8411  -16.3781   19.5401 H   0  0  0  0  0  0  0  0  0  0  0  0
   -7.2258  -17.2406   18.0682 H   0  0  0  0  0  0  0  0  0  0  0  0
   -6.9785  -14.6961   15.6291 H   0  0  0  0  0  0  0  0  0  0  0  0
   -7.4766  -16.2589   16.0332 H   0  0  0  0  0  0  0  0  0  0  0  0
   -9.0638  -14.1876   15.2327 H   0  0  0  0  0  0  0  0  0  0  0  0
   -9.3488  -13.0183   17.3121 H   0  0  0  0  0  0  0  0  0  0  0  0
   -9.4392  -14.4822   18.2918 H   0  0  0  0  0  0  0  0  0  0  0  0
  -11.6512  -13.3022   16.8895 H   0  0  0  0  0  0  0  0  0  0  0  0
  -11.5983  -14.7875   17.8611 H   0  0  0  0  0  0  0  0  0  0  0  0
  -11.0899  -14.4697   14.8655 H   0  0  0  0  0  0  0  0  0  0  0  0
  -11.9858  -15.6793   15.7223 H   0  0  0  0  0  0  0  0  0  0  0  0
  -11.8475  -17.9238   14.4037 H   0  0  0  0  0  0  0  0  0  0  0  0
  -10.5717  -18.4745   15.6274 H   0  0  0  0  0  0  0  0  0  0  0  0
  -11.2322  -21.6089   13.3354 H   0  0  0  0  0  0  0  0  0  0  0  0
   -8.4374  -22.1651   12.7699 H   0  0  0  0  0  0  0  0  0  0  0  0
   -9.2491  -21.3098   11.6743 H   0  0  0  0  0  0  0  0  0  0  0  0
  -11.2659  -23.2670   12.1851 H   0  0  0  0  0  0  0  0  0  0  0  0
   -9.9368  -23.7327   11.2060 H   0  0  0  0  0  0  0  0  0  0  0  0
  -10.1103  -25.1854   12.9794 H   0  0  0  0  0  0  0  0  0  0  0  0
   -9.6322  -24.4334   15.1879 H   0  0  0  0  0  0  0  0  0  0  0  0
  -11.1178  -23.9088   14.4359 H   0  0  0  0  0  0  0  0  0  0  0  0
   -8.5421  -22.2565   14.6786 H   0  0  0  0  0  0  0  0  0  0  0  0
   -9.7592  -21.9554   15.7657 H   0  0  0  0  0  0  0  0  0  0  0  0
  1  2  1  0
  2  3  1  0
  2  4  1  0
  4  5  1  0
  5  6  1  0
  6  7  1  0
  7  8  1  0
  8  9  1  0
  9 10  1  0
 10 11  2  0
 10 12  1  0
 12 13  1  0
 13 14  1  0
 14 15  1  0
 15 16  1  0
 16 17  1  0
 17 18  1  0
 18 19  1  0
  9  5  1  0
 19 14  1  0
  1 20  1  0
  1 21  1  0
  1 22  1  0
  2 23  1  0
  3 24  1  0
  3 25  1  0
  3 26  1  0
  4 27  1  0
  4 28  1  0
  5 29  1  0
  6 30  1  0
  6 31  1  0
  7 32  1  0
  7 33  1  0
  8 34  1  0
  8 35  1  0
 12 36  1  0
 12 37  1  0
 14 38  1  0
 15 39  1  0
 15 40  1  0
 16 41  1  0
 16 42  1  0
 17 43  1  0
 18 44  1  0
 18 45  1  0
 19 46  1  0
 19 47  1  0
M  END
>  <Energy>  (854) 
254.00775003544143

>  <compound_id>  (854) 
5882

>  <target_id>  (854) 
1

>  <reference_id>  (854) 
9

>  <inspiration_ids>  (854) 
[70, 9]

>  <energy_score>  (854) 
177.29122571446703

>  <distance_score>  (854) 
15.574649978694493

>  <path>  (854) 
/opt/xchem-fragalysis-2/maxwin/BulkDock/SCRATCH/511018/C5882-P9/C5882-P9.minimised.mol

>  <scratch_subdir>  (854) 
/opt/xchem-fragalysis-2/maxwin/BulkDock/SCRATCH/511018/C5882-P9

>  <fragmenstein_runtime>  (854) 
25.369452714920044

>  <fragmenstein_outcome>  (854) 
too moved

>  <fragmenstein_mode>  (854) 
expansion

>  <fragmenstein_error>  (854) 


$$$$
C5885-P70
     RDKit          3D

 44 45  0  0  0  0  0  0  0  0999 V2000
   -1.5089   -8.6851   26.5939 C   0  0  0  0  0  0  0  0  0  0  0  0
   -1.3690   -9.9268   25.7344 C   0  0  0  0  0  0  0  0  0  0  0  0
   -2.3644   -9.9761   24.6927 O   0  0  0  0  0  0  0  0  0  0  0  0
   -2.0571   -9.3019   23.5322 C   0  0  0  0  0  0  0  0  0  0  0  0
   -0.9971   -8.6904   23.3829 O   0  0  0  0  0  0  0  0  0  0  0  0
   -3.2488   -9.4987   22.2444 C   0  0  0  0  0  0  0  0  0  0  0  0
   -2.4703   -8.9247   21.0245 C   0  0  0  0  0  0  0  0  0  0  0  0
   -2.6932   -9.8574   19.9149 C   0  0  0  0  0  0  0  0  0  0  0  0
   -3.5279  -10.9243   20.5953 C   0  0  0  0  0  0  0  0  0  0  0  0
   -4.7675  -10.3349   21.7529 N   0  0  0  0  0  0  0  0  0  0  0  0
   -5.9236  -11.6395   22.7365 C   0  0  0  0  0  0  0  0  0  0  0  0
   -5.5581  -12.0733   23.8549 O   0  0  0  0  0  0  0  0  0  0  0  0
   -7.4369  -12.4812   22.2275 C   0  0  0  0  0  0  0  0  0  0  0  0
   -7.9617  -13.4580   21.2476 O   0  0  0  0  0  0  0  0  0  0  0  0
   -8.8526  -14.5712   21.4761 C   0  0  0  0  0  0  0  0  0  0  0  0
   -8.1057  -15.8639   21.8636 C   0  0  0  0  0  0  0  0  0  0  0  0
   -8.9885  -17.1192   21.8009 C   0  0  0  0  0  0  0  0  0  0  0  0
   -9.5791  -17.3112   20.4787 N   0  0  0  0  0  0  0  0  0  0  0  0
  -10.3828  -16.1496   20.1046 C   0  0  0  0  0  0  0  0  0  0  0  0
   -9.5621  -14.8560   20.1239 C   0  0  0  0  0  0  0  0  0  0  0  0
   -0.7808   -8.6986   27.4102 H   0  0  0  0  0  0  0  0  0  0  0  0
   -2.5131   -8.6247   27.0246 H   0  0  0  0  0  0  0  0  0  0  0  0
   -1.3504   -7.7757   26.0065 H   0  0  0  0  0  0  0  0  0  0  0  0
   -0.3593  -10.0086   25.3158 H   0  0  0  0  0  0  0  0  0  0  0  0
   -1.5249  -10.8149   26.3561 H   0  0  0  0  0  0  0  0  0  0  0  0
   -3.7966   -8.5741   22.4238 H   0  0  0  0  0  0  0  0  0  0  0  0
   -1.3998   -8.7761   21.1755 H   0  0  0  0  0  0  0  0  0  0  0  0
   -2.8999   -7.9634   20.7578 H   0  0  0  0  0  0  0  0  0  0  0  0
   -1.7531  -10.2849   19.5437 H   0  0  0  0  0  0  0  0  0  0  0  0
   -3.1373   -9.3723   19.0501 H   0  0  0  0  0  0  0  0  0  0  0  0
   -2.7102  -11.5370   20.9467 H   0  0  0  0  0  0  0  0  0  0  0  0
   -4.0972  -11.4672   19.8392 H   0  0  0  0  0  0  0  0  0  0  0  0
   -8.2498  -11.8216   22.5618 H   0  0  0  0  0  0  0  0  0  0  0  0
   -7.4350  -13.1623   23.0991 H   0  0  0  0  0  0  0  0  0  0  0  0
   -9.5904  -14.2947   22.2372 H   0  0  0  0  0  0  0  0  0  0  0  0
   -7.6868  -15.7502   22.8704 H   0  0  0  0  0  0  0  0  0  0  0  0
   -7.2462  -16.0110   21.1992 H   0  0  0  0  0  0  0  0  0  0  0  0
   -9.7757  -17.0602   22.5624 H   0  0  0  0  0  0  0  0  0  0  0  0
   -8.3760  -17.9947   22.0429 H   0  0  0  0  0  0  0  0  0  0  0  0
  -10.1617  -18.1478   20.4741 H   0  0  0  0  0  0  0  0  0  0  0  0
  -10.7818  -16.3048   19.0961 H   0  0  0  0  0  0  0  0  0  0  0  0
  -11.2432  -16.0546   20.7781 H   0  0  0  0  0  0  0  0  0  0  0  0
  -10.2082  -14.0045   19.8761 H   0  0  0  0  0  0  0  0  0  0  0  0
   -8.8082  -14.8905   19.3249 H   0  0  0  0  0  0  0  0  0  0  0  0
  1  2  1  0
  2  3  1  0
  3  4  1  0
  4  5  2  0
  4  6  1  0
  6  7  1  0
  7  8  1  0
  8  9  1  0
  9 10  1  0
 10 11  1  0
 11 12  2  0
 11 13  1  0
 13 14  1  0
 14 15  1  0
 15 16  1  0
 16 17  1  0
 17 18  1  0
 18 19  1  0
 19 20  1  0
 10  6  1  0
 20 15  1  0
  1 21  1  0
  1 22  1  0
  1 23  1  0
  2 24  1  0
  2 25  1  0
  6 26  1  0
  7 27  1  0
  7 28  1  0
  8 29  1  0
  8 30  1  0
  9 31  1  0
  9 32  1  0
 13 33  1  0
 13 34  1  0
 15 35  1  0
 16 36  1  0
 16 37  1  0
 17 38  1  0
 17 39  1  0
 18 40  1  0
 19 41  1  0
 19 42  1  0
 20 43  1  0
 20 44  1  0
M  END
>  <Energy>  (855) 
406.58709070487168

>  <compound_id>  (855) 
5885

>  <target_id>  (855) 
1

>  <reference_id>  (855) 
70

>  <inspiration_ids>  (855) 
[70, 9]

>  <energy_score>  (855) 
313.9421271868479

>  <distance_score>  (855) 
13.233148525358986

>  <path>  (855) 
/opt/xchem-fragalysis-2/maxwin/BulkDock/SCRATCH/511018/C5885-P70/C5885-P70.minimised.mol

>  <scratch_subdir>  (855) 
/opt/xchem-fragalysis-2/maxwin/BulkDock/SCRATCH/511018/C5885-P70

>  <fragmenstein_runtime>  (855) 
13.34616732597351

>  <fragmenstein_outcome>  (855) 
too moved

>  <fragmenstein_mode>  (855) 
expansion

>  <fragmenstein_error>  (855) 


$$$$
C5885-P9
     RDKit          3D

 44 45  0  0  0  0  0  0  0  0999 V2000
    0.8067   -7.9957   20.0703 C   0  0  0  0  0  0  0  0  0  0  0  0
    0.3375   -7.6332   21.5158 C   0  0  0  0  0  0  0  0  0  0  0  0
   -1.4805   -7.5071   21.7644 O   0  0  0  0  0  0  0  0  0  0  0  0
   -3.1221   -7.9032   22.0193 C   0  0  0  0  0  0  0  0  0  0  0  0
   -4.0669   -7.1148   22.1337 O   0  0  0  0  0  0  0  0  0  0  0  0
   -3.4456   -9.5020   22.1118 C   0  0  0  0  0  0  0  0  0  0  0  0
   -3.0203   -9.6701   24.0785 C   0  0  0  0  0  0  0  0  0  0  0  0
   -2.9732  -10.9186   24.7422 C   0  0  0  0  0  0  0  0  0  0  0  0
   -3.7040  -11.1005   23.3795 C   0  0  0  0  0  0  0  0  0  0  0  0
   -4.2588  -11.0688   21.3018 N   0  0  0  0  0  0  0  0  0  0  0  0
   -3.7208  -12.2737   19.6915 C   0  0  0  0  0  0  0  0  0  0  0  0
   -2.7040  -11.8762   19.0428 O   0  0  0  0  0  0  0  0  0  0  0  0
   -4.3343  -14.2374   18.8713 C   0  0  0  0  0  0  0  0  0  0  0  0
   -4.2680  -15.9815   17.7692 O   0  0  0  0  0  0  0  0  0  0  0  0
   -4.4971  -17.9426   17.2310 C   0  0  0  0  0  0  0  0  0  0  0  0
   -6.0831  -19.0321   17.4387 C   0  0  0  0  0  0  0  0  0  0  0  0
   -6.5837  -20.7662   16.3945 C   0  0  0  0  0  0  0  0  0  0  0  0
   -6.3069  -21.2868   14.1473 N   0  0  0  0  0  0  0  0  0  0  0  0
   -4.1861  -21.4440   15.0763 C   0  0  0  0  0  0  0  0  0  0  0  0
   -3.7110  -19.5580   16.0763 C   0  0  0  0  0  0  0  0  0  0  0  0
   -0.0065   -8.2767   19.3968 H   0  0  0  0  0  0  0  0  0  0  0  0
    1.5066   -8.8394   20.1178 H   0  0  0  0  0  0  0  0  0  0  0  0
    1.3849   -7.1803   19.6221 H   0  0  0  0  0  0  0  0  0  0  0  0
    0.8460   -8.3471   22.1728 H   0  0  0  0  0  0  0  0  0  0  0  0
    0.7222   -6.6834   21.9129 H   0  0  0  0  0  0  0  0  0  0  0  0
   -4.3965   -9.1826   22.3728 H   0  0  0  0  0  0  0  0  0  0  0  0
   -2.2357   -9.0065   24.5766 H   0  0  0  0  0  0  0  0  0  0  0  0
   -3.2764   -9.3174   25.0353 H   0  0  0  0  0  0  0  0  0  0  0  0
   -2.0209  -11.3230   25.1524 H   0  0  0  0  0  0  0  0  0  0  0  0
   -3.5889  -11.2546   25.5990 H   0  0  0  0  0  0  0  0  0  0  0  0
   -3.5162  -12.0972   23.9051 H   0  0  0  0  0  0  0  0  0  0  0  0
   -4.6669  -11.5236   24.1132 H   0  0  0  0  0  0  0  0  0  0  0  0
   -5.4169  -14.2760   18.8650 H   0  0  0  0  0  0  0  0  0  0  0  0
   -3.5595  -14.7750   19.4260 H   0  0  0  0  0  0  0  0  0  0  0  0
   -3.9631  -18.2108   18.1559 H   0  0  0  0  0  0  0  0  0  0  0  0
   -5.9703  -19.4291   18.4585 H   0  0  0  0  0  0  0  0  0  0  0  0
   -6.9255  -18.3266   17.4560 H   0  0  0  0  0  0  0  0  0  0  0  0
   -7.3488  -21.1414   17.1383 H   0  0  0  0  0  0  0  0  0  0  0  0
   -5.6664  -21.2170   17.1431 H   0  0  0  0  0  0  0  0  0  0  0  0
   -6.9562  -22.0694   14.3150 H   0  0  0  0  0  0  0  0  0  0  0  0
   -3.9578  -22.1439   15.9530 H   0  0  0  0  0  0  0  0  0  0  0  0
   -3.3798  -21.4314   14.2637 H   0  0  0  0  0  0  0  0  0  0  0  0
   -3.2115  -18.9931   15.2704 H   0  0  0  0  0  0  0  0  0  0  0  0
   -2.9194  -19.9133   16.7534 H   0  0  0  0  0  0  0  0  0  0  0  0
  1  2  1  0
  2  3  1  0
  3  4  1  0
  4  5  2  0
  4  6  1  0
  6  7  1  0
  7  8  1  0
  8  9  1  0
  9 10  1  0
 10 11  1  0
 11 12  2  0
 11 13  1  0
 13 14  1  0
 14 15  1  0
 15 16  1  0
 16 17  1  0
 17 18  1  0
 18 19  1  0
 19 20  1  0
 10  6  1  0
 20 15  1  0
  1 21  1  0
  1 22  1  0
  1 23  1  0
  2 24  1  0
  2 25  1  0
  6 26  1  0
  7 27  1  0
  7 28  1  0
  8 29  1  0
  8 30  1  0
  9 31  1  0
  9 32  1  0
 13 33  1  0
 13 34  1  0
 15 35  1  0
 16 36  1  0
 16 37  1  0
 17 38  1  0
 17 39  1  0
 18 40  1  0
 19 41  1  0
 19 42  1  0
 20 43  1  0
 20 44  1  0
M  END
>  <Energy>  (856) 
2569.4817891058665

>  <compound_id>  (856) 
5885

>  <target_id>  (856) 
1

>  <reference_id>  (856) 
9

>  <inspiration_ids>  (856) 
[70, 9]

>  <energy_score>  (856) 
2476.8368255878595

>  <distance_score>  (856) 
11.568445110207112

>  <path>  (856) 
/opt/xchem-fragalysis-2/maxwin/BulkDock/SCRATCH/511018/C5885-P9/C5885-P9.minimised.mol

>  <scratch_subdir>  (856) 
/opt/xchem-fragalysis-2/maxwin/BulkDock/SCRATCH/511018/C5885-P9

>  <fragmenstein_runtime>  (856) 
21.120543241500854

>  <fragmenstein_outcome>  (856) 
too moved

>  <fragmenstein_mode>  (856) 
expansion

>  <fragmenstein_error>  (856) 


$$$$
C5886-P70
     RDKit          3D

 45 46  0  0  0  0  0  0  0  0999 V2000
    2.6728   -6.2605   20.1837 C   0  0  0  0  0  0  0  0  0  0  0  0
    2.0780   -7.4327   20.4448 C   0  0  0  0  0  0  0  0  0  0  0  0
    1.8987   -8.5213   19.4281 C   0  0  0  0  0  0  0  0  0  0  0  0
    0.4820   -8.7522   18.8628 C   0  0  0  0  0  0  0  0  0  0  0  0
   -0.3914   -9.8495   19.5811 C   0  0  0  0  0  0  0  0  0  0  0  0
   -0.6291   -9.5897   21.0737 C   0  0  0  0  0  0  0  0  0  0  0  0
   -2.0428   -9.1577   21.0304 C   0  0  0  0  0  0  0  0  0  0  0  0
   -2.2295   -9.1225   19.5346 C   0  0  0  0  0  0  0  0  0  0  0  0
   -1.7260  -10.2781   18.8457 N   0  0  0  0  0  0  0  0  0  0  0  0
   -2.5926  -11.3941   19.0596 C   0  0  0  0  0  0  0  0  0  0  0  0
   -2.5738  -12.2362   19.9055 O   0  0  0  0  0  0  0  0  0  0  0  0
   -3.8149  -11.3454   17.9345 C   0  0  0  0  0  0  0  0  0  0  0  0
   -5.4817  -11.9409   17.7845 O   0  0  0  0  0  0  0  0  0  0  0  0
   -6.4624  -13.2959   17.5204 C   0  0  0  0  0  0  0  0  0  0  0  0
   -6.1887  -14.3545   16.3236 C   0  0  0  0  0  0  0  0  0  0  0  0
   -6.6749  -15.8006   16.6050 C   0  0  0  0  0  0  0  0  0  0  0  0
   -8.1098  -15.8550   16.8721 N   0  0  0  0  0  0  0  0  0  0  0  0
   -8.5779  -14.7846   17.7569 C   0  0  0  0  0  0  0  0  0  0  0  0
   -7.4457  -14.0411   18.5154 C   0  0  0  0  0  0  0  0  0  0  0  0
    3.0429   -6.0114   19.1935 H   0  0  0  0  0  0  0  0  0  0  0  0
    2.8009   -5.5137   20.9632 H   0  0  0  0  0  0  0  0  0  0  0  0
    1.7565   -7.6237   21.4647 H   0  0  0  0  0  0  0  0  0  0  0  0
    2.5533   -8.3020   18.5729 H   0  0  0  0  0  0  0  0  0  0  0  0
    2.2834   -9.4579   19.8500 H   0  0  0  0  0  0  0  0  0  0  0  0
   -0.0086   -7.7932   18.7668 H   0  0  0  0  0  0  0  0  0  0  0  0
    0.6010   -9.1065   17.8289 H   0  0  0  0  0  0  0  0  0  0  0  0
    0.2073  -10.7708   19.5240 H   0  0  0  0  0  0  0  0  0  0  0  0
    0.0217   -8.8422   21.5194 H   0  0  0  0  0  0  0  0  0  0  0  0
   -0.5265  -10.5131   21.6551 H   0  0  0  0  0  0  0  0  0  0  0  0
   -2.6835   -9.9134   21.4966 H   0  0  0  0  0  0  0  0  0  0  0  0
   -2.2485   -8.2240   21.5366 H   0  0  0  0  0  0  0  0  0  0  0  0
   -1.9450   -8.2814   18.9245 H   0  0  0  0  0  0  0  0  0  0  0  0
   -3.2837   -9.1152   19.3395 H   0  0  0  0  0  0  0  0  0  0  0  0
   -3.7931  -10.3893   17.3952 H   0  0  0  0  0  0  0  0  0  0  0  0
   -3.1522  -11.9509   17.2573 H   0  0  0  0  0  0  0  0  0  0  0  0
   -7.3364  -12.6967   17.2484 H   0  0  0  0  0  0  0  0  0  0  0  0
   -6.7718  -14.1090   15.4417 H   0  0  0  0  0  0  0  0  0  0  0  0
   -5.1391  -14.3432   16.0116 H   0  0  0  0  0  0  0  0  0  0  0  0
   -6.1193  -16.2498   17.4353 H   0  0  0  0  0  0  0  0  0  0  0  0
   -6.4647  -16.4204   15.7257 H   0  0  0  0  0  0  0  0  0  0  0  0
   -8.3578  -16.7702   17.2480 H   0  0  0  0  0  0  0  0  0  0  0  0
   -9.1567  -14.0673   17.1634 H   0  0  0  0  0  0  0  0  0  0  0  0
   -9.2747  -15.2116   18.4879 H   0  0  0  0  0  0  0  0  0  0  0  0
   -6.9990  -14.8532   19.0653 H   0  0  0  0  0  0  0  0  0  0  0  0
   -7.8727  -13.3543   19.2356 H   0  0  0  0  0  0  0  0  0  0  0  0
  1  2  2  0
  2  3  1  0
  3  4  1  0
  4  5  1  0
  5  6  1  0
  6  7  1  0
  7  8  1  0
  8  9  1  0
  9 10  1  0
 10 11  2  0
 10 12  1  0
 12 13  1  0
 13 14  1  0
 14 15  1  0
 15 16  1  0
 16 17  1  0
 17 18  1  0
 18 19  1  0
  9  5  1  0
 19 14  1  0
  1 20  1  0
  1 21  1  0
  2 22  1  0
  3 23  1  0
  3 24  1  0
  4 25  1  0
  4 26  1  0
  5 27  1  0
  6 28  1  0
  6 29  1  0
  7 30  1  0
  7 31  1  0
  8 32  1  0
  8 33  1  0
 12 34  1  0
 12 35  1  0
 14 36  1  0
 15 37  1  0
 15 38  1  0
 16 39  1  0
 16 40  1  0
 17 41  1  0
 18 42  1  0
 18 43  1  0
 19 44  1  0
 19 45  1  0
M  END
>  <Energy>  (857) 
276.33645514591922

>  <compound_id>  (857) 
5886

>  <target_id>  (857) 
1

>  <reference_id>  (857) 
70

>  <inspiration_ids>  (857) 
[70, 9]

>  <energy_score>  (857) 
195.01741629226797

>  <distance_score>  (857) 
13.464600672073106

>  <path>  (857) 
/opt/xchem-fragalysis-2/maxwin/BulkDock/SCRATCH/511018/C5886-P70/C5886-P70.minimised.mol

>  <scratch_subdir>  (857) 
/opt/xchem-fragalysis-2/maxwin/BulkDock/SCRATCH/511018/C5886-P70

>  <fragmenstein_runtime>  (857) 
20.084452867507935

>  <fragmenstein_outcome>  (857) 
too moved

>  <fragmenstein_mode>  (857) 
expansion

>  <fragmenstein_error>  (857) 


$$$$
C5886-P9
     RDKit          3D

 45 46  0  0  0  0  0  0  0  0999 V2000
   -3.7754    3.8321   21.8035 C   0  0  0  0  0  0  0  0  0  0  0  0
   -4.3284    3.1751   20.7608 C   0  0  0  0  0  0  0  0  0  0  0  0
   -4.7804    1.6517   20.6589 C   0  0  0  0  0  0  0  0  0  0  0  0
   -3.9975   -0.2443   20.7534 C   0  0  0  0  0  0  0  0  0  0  0  0
   -3.8809   -2.1392   19.5679 C   0  0  0  0  0  0  0  0  0  0  0  0
   -3.4289   -2.5392   21.5874 C   0  0  0  0  0  0  0  0  0  0  0  0
   -4.3895   -3.9219   21.6032 C   0  0  0  0  0  0  0  0  0  0  0  0
   -4.5126   -4.3125   20.0870 C   0  0  0  0  0  0  0  0  0  0  0  0
   -5.1006   -3.6669   19.0157 N   0  0  0  0  0  0  0  0  0  0  0  0
   -5.0186   -4.7192   17.5463 C   0  0  0  0  0  0  0  0  0  0  0  0
   -4.1512   -4.7322   16.7143 O   0  0  0  0  0  0  0  0  0  0  0  0
   -6.3486   -6.1791   17.1565 C   0  0  0  0  0  0  0  0  0  0  0  0
   -7.3651   -6.5410   16.0141 O   0  0  0  0  0  0  0  0  0  0  0  0
   -8.5402   -5.9635   14.9568 C   0  0  0  0  0  0  0  0  0  0  0  0
   -9.9277   -5.3414   15.3526 C   0  0  0  0  0  0  0  0  0  0  0  0
  -11.0201   -5.6104   14.2718 C   0  0  0  0  0  0  0  0  0  0  0  0
  -11.2990   -6.9984   13.9296 N   0  0  0  0  0  0  0  0  0  0  0  0
  -10.1378   -7.7361   13.4662 C   0  0  0  0  0  0  0  0  0  0  0  0
   -8.7738   -7.0754   13.7281 C   0  0  0  0  0  0  0  0  0  0  0  0
   -3.6126    4.9039   21.7466 H   0  0  0  0  0  0  0  0  0  0  0  0
   -3.4919    3.3363   22.7226 H   0  0  0  0  0  0  0  0  0  0  0  0
   -4.6659    3.7892   19.9211 H   0  0  0  0  0  0  0  0  0  0  0  0
   -4.9574    1.7899   21.7050 H   0  0  0  0  0  0  0  0  0  0  0  0
   -5.6673    1.6636   19.9902 H   0  0  0  0  0  0  0  0  0  0  0  0
   -3.0841   -0.1879   21.4714 H   0  0  0  0  0  0  0  0  0  0  0  0
   -4.3507   -0.3904   21.7220 H   0  0  0  0  0  0  0  0  0  0  0  0
   -3.2674   -1.9604   18.6656 H   0  0  0  0  0  0  0  0  0  0  0  0
   -2.3810   -2.3544   21.8969 H   0  0  0  0  0  0  0  0  0  0  0  0
   -3.3713   -1.7610   22.2869 H   0  0  0  0  0  0  0  0  0  0  0  0
   -3.9064   -4.0376   22.5343 H   0  0  0  0  0  0  0  0  0  0  0  0
   -4.0608   -4.9657   21.6486 H   0  0  0  0  0  0  0  0  0  0  0  0
   -5.3717   -4.9646   20.2785 H   0  0  0  0  0  0  0  0  0  0  0  0
   -3.7696   -4.9371   19.6676 H   0  0  0  0  0  0  0  0  0  0  0  0
   -5.6551   -7.0053   17.1362 H   0  0  0  0  0  0  0  0  0  0  0  0
   -6.7924   -6.6940   17.9859 H   0  0  0  0  0  0  0  0  0  0  0  0
   -8.0633   -5.1547   14.3878 H   0  0  0  0  0  0  0  0  0  0  0  0
  -10.2733   -5.5872   16.3625 H   0  0  0  0  0  0  0  0  0  0  0  0
   -9.8509   -4.2489   15.3948 H   0  0  0  0  0  0  0  0  0  0  0  0
  -11.9528   -5.1603   14.6323 H   0  0  0  0  0  0  0  0  0  0  0  0
  -10.7554   -5.0605   13.3590 H   0  0  0  0  0  0  0  0  0  0  0  0
  -12.0546   -7.0611   13.2491 H   0  0  0  0  0  0  0  0  0  0  0  0
  -10.1619   -8.7389   13.9078 H   0  0  0  0  0  0  0  0  0  0  0  0
  -10.2292   -7.8998   12.3848 H   0  0  0  0  0  0  0  0  0  0  0  0
   -8.0574   -7.8954   13.8029 H   0  0  0  0  0  0  0  0  0  0  0  0
   -8.5293   -6.5265   12.8060 H   0  0  0  0  0  0  0  0  0  0  0  0
  1  2  2  0
  2  3  1  0
  3  4  1  0
  4  5  1  0
  5  6  1  0
  6  7  1  0
  7  8  1  0
  8  9  1  0
  9 10  1  0
 10 11  2  0
 10 12  1  0
 12 13  1  0
 13 14  1  0
 14 15  1  0
 15 16  1  0
 16 17  1  0
 17 18  1  0
 18 19  1  0
  9  5  1  0
 19 14  1  0
  1 20  1  0
  1 21  1  0
  2 22  1  0
  3 23  1  0
  3 24  1  0
  4 25  1  0
  4 26  1  0
  5 27  1  0
  6 28  1  0
  6 29  1  0
  7 30  1  0
  7 31  1  0
  8 32  1  0
  8 33  1  0
 12 34  1  0
 12 35  1  0
 14 36  1  0
 15 37  1  0
 15 38  1  0
 16 39  1  0
 16 40  1  0
 17 41  1  0
 18 42  1  0
 18 43  1  0
 19 44  1  0
 19 45  1  0
M  END
>  <Energy>  (858) 
923.72060816293822

>  <compound_id>  (858) 
5886

>  <target_id>  (858) 
1

>  <reference_id>  (858) 
9

>  <inspiration_ids>  (858) 
[70, 9]

>  <energy_score>  (858) 
842.4015693092958

>  <distance_score>  (858) 
15.05128358814359

>  <path>  (858) 
/opt/xchem-fragalysis-2/maxwin/BulkDock/SCRATCH/511018/C5886-P9/C5886-P9.minimised.mol

>  <scratch_subdir>  (858) 
/opt/xchem-fragalysis-2/maxwin/BulkDock/SCRATCH/511018/C5886-P9

>  <fragmenstein_runtime>  (858) 
17.272205352783203

>  <fragmenstein_outcome>  (858) 
too moved

>  <fragmenstein_mode>  (858) 
expansion

>  <fragmenstein_error>  (858) 


$$$$
C5887-P70
     RDKit          3D

 40 42  0  0  0  0  0  0  0  0999 V2000
  -13.2125  -12.0985   23.0152 O   0  0  0  0  0  0  0  0  0  0  0  0
  -12.1589  -11.8385   22.4812 C   0  0  0  0  0  0  0  0  0  0  0  0
  -11.3570  -13.1000   21.7913 C   0  0  0  0  0  0  0  0  0  0  0  0
  -11.9053  -13.7939   20.6317 O   0  0  0  0  0  0  0  0  0  0  0  0
  -11.8864  -15.2494   20.6291 C   0  0  0  0  0  0  0  0  0  0  0  0
  -10.4804  -15.8530   20.5140 C   0  0  0  0  0  0  0  0  0  0  0  0
  -10.5173  -17.3772   20.3404 C   0  0  0  0  0  0  0  0  0  0  0  0
  -11.3181  -17.7940   19.1915 N   0  0  0  0  0  0  0  0  0  0  0  0
  -12.6847  -17.2818   19.2922 C   0  0  0  0  0  0  0  0  0  0  0  0
  -12.7194  -15.7560   19.4303 C   0  0  0  0  0  0  0  0  0  0  0  0
  -11.5026  -10.5455   22.2529 N   0  0  0  0  0  0  0  0  0  0  0  0
  -11.9798   -9.1530   22.5065 C   0  0  0  0  0  0  0  0  0  0  0  0
  -12.1364   -8.6654   23.9293 C   0  0  0  0  0  0  0  0  0  0  0  0
  -10.7601   -8.9429   24.3897 C   0  0  0  0  0  0  0  0  0  0  0  0
   -9.8088   -7.7502   24.3218 C   0  0  0  0  0  0  0  0  0  0  0  0
   -9.0045   -7.3889   25.3937 N   0  0  0  0  0  0  0  0  0  0  0  0
   -8.5170   -6.2347   25.0036 C   0  0  0  0  0  0  0  0  0  0  0  0
   -8.9549   -5.8343   23.7865 O   0  0  0  0  0  0  0  0  0  0  0  0
   -9.8240   -6.8353   23.3347 N   0  0  0  0  0  0  0  0  0  0  0  0
  -10.5388  -10.1840   23.4762 C   0  0  0  0  0  0  0  0  0  0  0  0
  -11.2329  -13.8245   22.6040 H   0  0  0  0  0  0  0  0  0  0  0  0
  -10.3659  -12.7453   21.5044 H   0  0  0  0  0  0  0  0  0  0  0  0
  -12.3655  -15.5909   21.5554 H   0  0  0  0  0  0  0  0  0  0  0  0
   -9.9446  -15.3863   19.6776 H   0  0  0  0  0  0  0  0  0  0  0  0
   -9.9104  -15.6108   21.4164 H   0  0  0  0  0  0  0  0  0  0  0  0
  -10.9074  -17.8476   21.2513 H   0  0  0  0  0  0  0  0  0  0  0  0
   -9.4948  -17.7498   20.2123 H   0  0  0  0  0  0  0  0  0  0  0  0
  -10.8868  -17.4162   18.3466 H   0  0  0  0  0  0  0  0  0  0  0  0
  -13.1918  -17.7479   20.1457 H   0  0  0  0  0  0  0  0  0  0  0  0
  -13.2422  -17.5786   18.3970 H   0  0  0  0  0  0  0  0  0  0  0  0
  -13.7561  -15.4152   19.5408 H   0  0  0  0  0  0  0  0  0  0  0  0
  -12.3507  -15.2873   18.5080 H   0  0  0  0  0  0  0  0  0  0  0  0
  -12.9736   -9.1177   22.0402 H   0  0  0  0  0  0  0  0  0  0  0  0
  -11.3573   -8.4832   21.8947 H   0  0  0  0  0  0  0  0  0  0  0  0
  -12.8728   -9.2790   24.4619 H   0  0  0  0  0  0  0  0  0  0  0  0
  -12.4469   -7.6182   23.9876 H   0  0  0  0  0  0  0  0  0  0  0  0
  -10.7690   -9.2650   25.4392 H   0  0  0  0  0  0  0  0  0  0  0  0
   -7.8350   -5.5746   25.5137 H   0  0  0  0  0  0  0  0  0  0  0  0
   -9.5344  -10.1312   23.0571 H   0  0  0  0  0  0  0  0  0  0  0  0
  -10.5613  -11.0694   24.1252 H   0  0  0  0  0  0  0  0  0  0  0  0
  1  2  2  0
  2  3  1  0
  3  4  1  0
  4  5  1  0
  5  6  1  0
  6  7  1  0
  7  8  1  0
  8  9  1  0
  9 10  1  0
  2 11  1  0
 11 12  1  0
 12 13  1  0
 13 14  1  0
 14 15  1  0
 15 16  1  0
 16 17  2  0
 17 18  1  0
 18 19  1  0
 14 20  1  0
 10  5  1  0
 20 11  1  0
 19 15  2  0
  3 21  1  0
  3 22  1  0
  5 23  1  0
  6 24  1  0
  6 25  1  0
  7 26  1  0
  7 27  1  0
  8 28  1  0
  9 29  1  0
  9 30  1  0
 10 31  1  0
 10 32  1  0
 12 33  1  0
 12 34  1  0
 13 35  1  0
 13 36  1  0
 14 37  1  0
 17 38  1  0
 20 39  1  0
 20 40  1  0
M  END
>  <Energy>  (859) 
118.3423343726852

>  <compound_id>  (859) 
5887

>  <target_id>  (859) 
1

>  <reference_id>  (859) 
70

>  <inspiration_ids>  (859) 
[70, 9]

>  <energy_score>  (859) 
28.511739479358084

>  <distance_score>  (859) 
12.924481634626018

>  <path>  (859) 
/opt/xchem-fragalysis-2/maxwin/BulkDock/SCRATCH/511018/C5887-P70/C5887-P70.minimised.mol

>  <scratch_subdir>  (859) 
/opt/xchem-fragalysis-2/maxwin/BulkDock/SCRATCH/511018/C5887-P70

>  <fragmenstein_runtime>  (859) 
14.728610038757324

>  <fragmenstein_outcome>  (859) 
too moved

>  <fragmenstein_mode>  (859) 
expansion

>  <fragmenstein_error>  (859) 


$$$$
C5887-P9
     RDKit          3D

 40 42  0  0  0  0  0  0  0  0999 V2000
  -12.0786  -17.0710   16.9312 O   0  0  0  0  0  0  0  0  0  0  0  0
  -11.1926  -16.7223   16.1784 C   0  0  0  0  0  0  0  0  0  0  0  0
  -11.3849  -17.4147   14.6399 C   0  0  0  0  0  0  0  0  0  0  0  0
  -10.9409  -18.7218   14.0721 O   0  0  0  0  0  0  0  0  0  0  0  0
  -11.6145  -20.2590   13.6580 C   0  0  0  0  0  0  0  0  0  0  0  0
  -10.8853  -21.8829   13.1600 C   0  0  0  0  0  0  0  0  0  0  0  0
  -11.8972  -23.1444   12.9840 C   0  0  0  0  0  0  0  0  0  0  0  0
  -13.3891  -23.0473   12.9464 N   0  0  0  0  0  0  0  0  0  0  0  0
  -14.1825  -22.0694   13.7777 C   0  0  0  0  0  0  0  0  0  0  0  0
  -13.5285  -20.4656   14.0626 C   0  0  0  0  0  0  0  0  0  0  0  0
   -9.9908  -15.9146   16.4345 N   0  0  0  0  0  0  0  0  0  0  0  0
   -9.4348  -15.3693   17.7171 C   0  0  0  0  0  0  0  0  0  0  0  0
   -8.3990  -14.2704   17.5756 C   0  0  0  0  0  0  0  0  0  0  0  0
   -9.0765  -13.4044   16.5628 C   0  0  0  0  0  0  0  0  0  0  0  0
   -9.2652  -11.9637   17.0463 C   0  0  0  0  0  0  0  0  0  0  0  0
   -8.4659  -10.9353   16.5627 N   0  0  0  0  0  0  0  0  0  0  0  0
   -8.8592   -9.9008   17.2639 C   0  0  0  0  0  0  0  0  0  0  0  0
   -9.8160  -10.1952   18.1755 O   0  0  0  0  0  0  0  0  0  0  0  0
  -10.0883  -11.5697   18.0354 N   0  0  0  0  0  0  0  0  0  0  0  0
  -10.2912  -14.3591   16.1922 C   0  0  0  0  0  0  0  0  0  0  0  0
  -12.4690  -17.3511   14.5379 H   0  0  0  0  0  0  0  0  0  0  0  0
  -10.9503  -16.6630   13.9699 H   0  0  0  0  0  0  0  0  0  0  0  0
  -10.7649  -20.4679   14.3302 H   0  0  0  0  0  0  0  0  0  0  0  0
  -10.1902  -22.1938   13.9640 H   0  0  0  0  0  0  0  0  0  0  0  0
  -10.1748  -21.8187   12.3331 H   0  0  0  0  0  0  0  0  0  0  0  0
  -11.6366  -23.8775   13.7565 H   0  0  0  0  0  0  0  0  0  0  0  0
  -11.5967  -23.6483   12.0559 H   0  0  0  0  0  0  0  0  0  0  0  0
  -13.8025  -23.9760   13.0213 H   0  0  0  0  0  0  0  0  0  0  0  0
  -14.3298  -22.5736   14.7365 H   0  0  0  0  0  0  0  0  0  0  0  0
  -15.1929  -21.9536   13.3669 H   0  0  0  0  0  0  0  0  0  0  0  0
  -14.2323  -19.6157   14.0880 H   0  0  0  0  0  0  0  0  0  0  0  0
  -13.6788  -20.2191   15.0821 H   0  0  0  0  0  0  0  0  0  0  0  0
  -10.2566  -15.1030   18.4028 H   0  0  0  0  0  0  0  0  0  0  0  0
   -8.9617  -16.2332   18.2027 H   0  0  0  0  0  0  0  0  0  0  0  0
   -7.4655  -14.6773   17.1706 H   0  0  0  0  0  0  0  0  0  0  0  0
   -8.1854  -13.7889   18.5344 H   0  0  0  0  0  0  0  0  0  0  0  0
   -8.4351  -13.3485   15.6719 H   0  0  0  0  0  0  0  0  0  0  0  0
   -8.5268   -8.8756   17.2110 H   0  0  0  0  0  0  0  0  0  0  0  0
  -11.2182  -14.0878   16.7223 H   0  0  0  0  0  0  0  0  0  0  0  0
  -10.5211  -14.2664   15.1230 H   0  0  0  0  0  0  0  0  0  0  0  0
  1  2  2  0
  2  3  1  0
  3  4  1  0
  4  5  1  0
  5  6  1  0
  6  7  1  0
  7  8  1  0
  8  9  1  0
  9 10  1  0
  2 11  1  0
 11 12  1  0
 12 13  1  0
 13 14  1  0
 14 15  1  0
 15 16  1  0
 16 17  2  0
 17 18  1  0
 18 19  1  0
 14 20  1  0
 10  5  1  0
 20 11  1  0
 19 15  2  0
  3 21  1  0
  3 22  1  0
  5 23  1  0
  6 24  1  0
  6 25  1  0
  7 26  1  0
  7 27  1  0
  8 28  1  0
  9 29  1  0
  9 30  1  0
 10 31  1  0
 10 32  1  0
 12 33  1  0
 12 34  1  0
 13 35  1  0
 13 36  1  0
 14 37  1  0
 17 38  1  0
 20 39  1  0
 20 40  1  0
M  END
>  <Energy>  (860) 
358.69874864337618

>  <compound_id>  (860) 
5887

>  <target_id>  (860) 
1

>  <reference_id>  (860) 
9

>  <inspiration_ids>  (860) 
[70, 9]

>  <energy_score>  (860) 
268.8681537500492

>  <distance_score>  (860) 
14.758045583571924

>  <path>  (860) 
/opt/xchem-fragalysis-2/maxwin/BulkDock/SCRATCH/511018/C5887-P9/C5887-P9.minimised.mol

>  <scratch_subdir>  (860) 
/opt/xchem-fragalysis-2/maxwin/BulkDock/SCRATCH/511018/C5887-P9

>  <fragmenstein_runtime>  (860) 
11.65664529800415

>  <fragmenstein_outcome>  (860) 
too moved

>  <fragmenstein_mode>  (860) 
expansion

>  <fragmenstein_error>  (860) 


$$$$
C5889-P70
     RDKit          3D

 46 47  0  0  0  0  0  0  0  0999 V2000
   -4.1283   -3.4667   21.3963 C   0  0  0  0  0  0  0  0  0  0  0  0
   -4.9308   -4.3721   20.6148 N   0  0  0  0  0  0  0  0  0  0  0  0
   -5.0770   -3.5412   19.3984 C   0  0  0  0  0  0  0  0  0  0  0  0
   -6.2918   -4.7712   21.1743 C   0  0  0  0  0  0  0  0  0  0  0  0
   -7.3542   -6.5023   21.3177 C   0  0  0  0  0  0  0  0  0  0  0  0
   -7.9162   -5.7722   19.9558 C   0  0  0  0  0  0  0  0  0  0  0  0
   -8.6787   -6.4919   19.0256 C   0  0  0  0  0  0  0  0  0  0  0  0
   -8.7148   -7.5746   19.9100 C   0  0  0  0  0  0  0  0  0  0  0  0
   -8.6024   -7.0787   21.7741 N   0  0  0  0  0  0  0  0  0  0  0  0
   -8.9720   -8.5565   22.8683 C   0  0  0  0  0  0  0  0  0  0  0  0
   -8.2169   -9.4080   23.3553 O   0  0  0  0  0  0  0  0  0  0  0  0
  -10.5408   -8.8590   23.3429 C   0  0  0  0  0  0  0  0  0  0  0  0
  -11.1525  -10.2619   23.3124 O   0  0  0  0  0  0  0  0  0  0  0  0
  -10.6167  -11.4692   23.9317 C   0  0  0  0  0  0  0  0  0  0  0  0
   -9.6047  -12.3094   23.1188 C   0  0  0  0  0  0  0  0  0  0  0  0
   -9.6147  -13.8118   23.4440 C   0  0  0  0  0  0  0  0  0  0  0  0
  -10.8828  -14.4665   23.1165 N   0  0  0  0  0  0  0  0  0  0  0  0
  -12.0260  -13.5681   23.2363 C   0  0  0  0  0  0  0  0  0  0  0  0
  -11.8269  -12.4091   24.2336 C   0  0  0  0  0  0  0  0  0  0  0  0
   -3.2438   -3.1926   20.8581 H   0  0  0  0  0  0  0  0  0  0  0  0
   -4.6897   -2.5527   21.4948 H   0  0  0  0  0  0  0  0  0  0  0  0
   -3.6719   -3.7951   22.3190 H   0  0  0  0  0  0  0  0  0  0  0  0
   -5.4181   -4.0769   18.5246 H   0  0  0  0  0  0  0  0  0  0  0  0
   -4.1526   -3.0730   19.0761 H   0  0  0  0  0  0  0  0  0  0  0  0
   -5.7226   -2.6936   19.6361 H   0  0  0  0  0  0  0  0  0  0  0  0
   -6.8715   -4.0805   20.5580 H   0  0  0  0  0  0  0  0  0  0  0  0
   -6.5568   -4.0932   21.9891 H   0  0  0  0  0  0  0  0  0  0  0  0
   -7.0303   -6.2303   22.2992 H   0  0  0  0  0  0  0  0  0  0  0  0
   -6.9993   -5.5953   19.4287 H   0  0  0  0  0  0  0  0  0  0  0  0
   -8.5832   -4.9394   20.0016 H   0  0  0  0  0  0  0  0  0  0  0  0
   -7.9738   -6.6442   18.2153 H   0  0  0  0  0  0  0  0  0  0  0  0
   -9.7001   -6.2111   18.7805 H   0  0  0  0  0  0  0  0  0  0  0  0
   -8.1751   -8.4037   19.4376 H   0  0  0  0  0  0  0  0  0  0  0  0
   -9.7075   -7.9149   19.6795 H   0  0  0  0  0  0  0  0  0  0  0  0
  -10.5923   -8.5594   24.3958 H   0  0  0  0  0  0  0  0  0  0  0  0
  -11.2715   -8.2679   22.8026 H   0  0  0  0  0  0  0  0  0  0  0  0
  -10.1744  -11.1634   24.8867 H   0  0  0  0  0  0  0  0  0  0  0  0
   -9.8205  -12.2357   22.0659 H   0  0  0  0  0  0  0  0  0  0  0  0
   -8.5962  -11.9124   23.2699 H   0  0  0  0  0  0  0  0  0  0  0  0
   -9.3981  -13.9471   24.5109 H   0  0  0  0  0  0  0  0  0  0  0  0
   -8.8128  -14.3118   22.8901 H   0  0  0  0  0  0  0  0  0  0  0  0
  -11.0019  -15.2883   23.7058 H   0  0  0  0  0  0  0  0  0  0  0  0
  -12.9024  -14.1531   23.5389 H   0  0  0  0  0  0  0  0  0  0  0  0
  -12.2659  -13.1612   22.2496 H   0  0  0  0  0  0  0  0  0  0  0  0
  -11.6777  -12.8470   25.2300 H   0  0  0  0  0  0  0  0  0  0  0  0
  -12.7522  -11.8226   24.2869 H   0  0  0  0  0  0  0  0  0  0  0  0
  1  2  1  0
  2  3  1  0
  2  4  1  0
  4  5  1  0
  5  6  1  0
  6  7  1  0
  7  8  1  0
  8  9  1  0
  9 10  1  0
 10 11  2  0
 10 12  1  0
 12 13  1  0
 13 14  1  0
 14 15  1  0
 15 16  1  0
 16 17  1  0
 17 18  1  0
 18 19  1  0
  9  5  1  0
 19 14  1  0
  1 20  1  0
  1 21  1  0
  1 22  1  0
  3 23  1  0
  3 24  1  0
  3 25  1  0
  4 26  1  0
  4 27  1  0
  5 28  1  0
  6 29  1  0
  6 30  1  0
  7 31  1  0
  7 32  1  0
  8 33  1  0
  8 34  1  0
 12 35  1  0
 12 36  1  0
 14 37  1  0
 15 38  1  0
 15 39  1  0
 16 40  1  0
 16 41  1  0
 17 42  1  0
 18 43  1  0
 18 44  1  0
 19 45  1  0
 19 46  1  0
M  END
>  <Energy>  (861) 
499.22271272032793

>  <compound_id>  (861) 
5889

>  <target_id>  (861) 
1

>  <reference_id>  (861) 
70

>  <inspiration_ids>  (861) 
[70, 9]

>  <energy_score>  (861) 
373.3410582533711

>  <distance_score>  (861) 
14.542989196182171

>  <path>  (861) 
/opt/xchem-fragalysis-2/maxwin/BulkDock/SCRATCH/511018/C5889-P70/C5889-P70.minimised.mol

>  <scratch_subdir>  (861) 
/opt/xchem-fragalysis-2/maxwin/BulkDock/SCRATCH/511018/C5889-P70

>  <fragmenstein_runtime>  (861) 
19.066490173339844

>  <fragmenstein_outcome>  (861) 
too moved

>  <fragmenstein_mode>  (861) 
expansion

>  <fragmenstein_error>  (861) 


$$$$
C5889-P9
     RDKit          3D

 46 47  0  0  0  0  0  0  0  0999 V2000
   -3.8177    5.7663   22.6869 C   0  0  0  0  0  0  0  0  0  0  0  0
   -3.0601    4.8168   23.5048 N   0  0  0  0  0  0  0  0  0  0  0  0
   -1.6611    4.8024   23.0849 C   0  0  0  0  0  0  0  0  0  0  0  0
   -3.6782    3.4659   23.4464 C   0  0  0  0  0  0  0  0  0  0  0  0
   -4.3816    3.1029   24.8328 C   0  0  0  0  0  0  0  0  0  0  0  0
   -3.3039    2.6963   25.7572 C   0  0  0  0  0  0  0  0  0  0  0  0
   -4.2582    2.4616   26.8527 C   0  0  0  0  0  0  0  0  0  0  0  0
   -5.7187    2.4727   26.2397 C   0  0  0  0  0  0  0  0  0  0  0  0
   -5.6146    1.8669   24.9786 N   0  0  0  0  0  0  0  0  0  0  0  0
   -5.5676    0.3499   25.0982 C   0  0  0  0  0  0  0  0  0  0  0  0
   -4.4883   -0.0956   25.1996 O   0  0  0  0  0  0  0  0  0  0  0  0
   -6.9802   -1.2266   24.9378 C   0  0  0  0  0  0  0  0  0  0  0  0
   -6.8922   -3.0171   24.1764 O   0  0  0  0  0  0  0  0  0  0  0  0
   -7.0432   -3.9955   22.5661 C   0  0  0  0  0  0  0  0  0  0  0  0
   -7.1542   -6.0590   22.5872 C   0  0  0  0  0  0  0  0  0  0  0  0
   -8.0929   -7.3452   22.0522 C   0  0  0  0  0  0  0  0  0  0  0  0
   -8.2680   -7.5572   20.6917 N   0  0  0  0  0  0  0  0  0  0  0  0
   -7.9266   -6.3332   20.4391 C   0  0  0  0  0  0  0  0  0  0  0  0
   -6.4019   -5.0852   21.0991 C   0  0  0  0  0  0  0  0  0  0  0  0
   -3.7801    5.5146   21.6205 H   0  0  0  0  0  0  0  0  0  0  0  0
   -4.8680    5.7938   22.9927 H   0  0  0  0  0  0  0  0  0  0  0  0
   -3.4254    6.7811   22.8158 H   0  0  0  0  0  0  0  0  0  0  0  0
   -1.2182    5.7994   23.1877 H   0  0  0  0  0  0  0  0  0  0  0  0
   -1.5415    4.4790   22.0459 H   0  0  0  0  0  0  0  0  0  0  0  0
   -1.0739    4.1343   23.7250 H   0  0  0  0  0  0  0  0  0  0  0  0
   -4.3718    3.4131   22.6054 H   0  0  0  0  0  0  0  0  0  0  0  0
   -2.8771    2.7456   23.2336 H   0  0  0  0  0  0  0  0  0  0  0  0
   -4.7789    4.0581   25.1013 H   0  0  0  0  0  0  0  0  0  0  0  0
   -2.5702    3.4797   25.9714 H   0  0  0  0  0  0  0  0  0  0  0  0
   -2.7701    1.7914   25.4581 H   0  0  0  0  0  0  0  0  0  0  0  0
   -4.0247    3.2908   27.4953 H   0  0  0  0  0  0  0  0  0  0  0  0
   -3.9358    1.5435   27.3018 H   0  0  0  0  0  0  0  0  0  0  0  0
   -6.2683    3.3971   26.2269 H   0  0  0  0  0  0  0  0  0  0  0  0
   -6.3949    1.7926   26.6372 H   0  0  0  0  0  0  0  0  0  0  0  0
   -7.2738   -1.6047   25.9154 H   0  0  0  0  0  0  0  0  0  0  0  0
   -7.9786   -0.8970   24.5948 H   0  0  0  0  0  0  0  0  0  0  0  0
   -6.3902   -3.2989   22.0190 H   0  0  0  0  0  0  0  0  0  0  0  0
   -8.1485   -6.1011   22.3060 H   0  0  0  0  0  0  0  0  0  0  0  0
   -7.0929   -6.1903   23.9257 H   0  0  0  0  0  0  0  0  0  0  0  0
   -9.0524   -7.5739   22.6044 H   0  0  0  0  0  0  0  0  0  0  0  0
   -8.3270   -8.2853   22.7909 H   0  0  0  0  0  0  0  0  0  0  0  0
   -7.9725   -8.3336   20.0662 H   0  0  0  0  0  0  0  0  0  0  0  0
   -8.0604   -6.7109   19.4545 H   0  0  0  0  0  0  0  0  0  0  0  0
   -8.9088   -5.8026   20.3288 H   0  0  0  0  0  0  0  0  0  0  0  0
   -6.1211   -4.3186   20.3502 H   0  0  0  0  0  0  0  0  0  0  0  0
   -5.3976   -5.4474   21.3605 H   0  0  0  0  0  0  0  0  0  0  0  0
  1  2  1  0
  2  3  1  0
  2  4  1  0
  4  5  1  0
  5  6  1  0
  6  7  1  0
  7  8  1  0
  8  9  1  0
  9 10  1  0
 10 11  2  0
 10 12  1  0
 12 13  1  0
 13 14  1  0
 14 15  1  0
 15 16  1  0
 16 17  1  0
 17 18  1  0
 18 19  1  0
  9  5  1  0
 19 14  1  0
  1 20  1  0
  1 21  1  0
  1 22  1  0
  3 23  1  0
  3 24  1  0
  3 25  1  0
  4 26  1  0
  4 27  1  0
  5 28  1  0
  6 29  1  0
  6 30  1  0
  7 31  1  0
  7 32  1  0
  8 33  1  0
  8 34  1  0
 12 35  1  0
 12 36  1  0
 14 37  1  0
 15 38  1  0
 15 39  1  0
 16 40  1  0
 16 41  1  0
 17 42  1  0
 18 43  1  0
 18 44  1  0
 19 45  1  0
 19 46  1  0
M  END
>  <Energy>  (862) 
1046.3247459009619

>  <compound_id>  (862) 
5889

>  <target_id>  (862) 
1

>  <reference_id>  (862) 
9

>  <inspiration_ids>  (862) 
[70, 9]

>  <energy_score>  (862) 
920.4430914340232

>  <distance_score>  (862) 
16.141356487561463

>  <path>  (862) 
/opt/xchem-fragalysis-2/maxwin/BulkDock/SCRATCH/511018/C5889-P9/C5889-P9.minimised.mol

>  <scratch_subdir>  (862) 
/opt/xchem-fragalysis-2/maxwin/BulkDock/SCRATCH/511018/C5889-P9

>  <fragmenstein_runtime>  (862) 
19.538393020629883

>  <fragmenstein_outcome>  (862) 
too moved

>  <fragmenstein_mode>  (862) 
expansion

>  <fragmenstein_error>  (862) 


$$$$
C5891-P70
     RDKit          3D

 44 45  0  0  0  0  0  0  0  0999 V2000
   -6.1773   -4.7880   21.2255 C   0  0  0  0  0  0  0  0  0  0  0  0
   -7.0970   -6.1657   22.0451 C   0  0  0  0  0  0  0  0  0  0  0  0
   -7.0352   -6.2419   24.1051 C   0  0  0  0  0  0  0  0  0  0  0  0
   -8.3224   -6.8884   20.5095 C   0  0  0  0  0  0  0  0  0  0  0  0
   -8.6655   -5.8751   19.5052 C   0  0  0  0  0  0  0  0  0  0  0  0
  -10.1334   -6.1519   19.0061 C   0  0  0  0  0  0  0  0  0  0  0  0
  -10.1865   -7.5581   19.2212 C   0  0  0  0  0  0  0  0  0  0  0  0
   -8.4215   -7.9919   18.8393 N   0  0  0  0  0  0  0  0  0  0  0  0
   -7.9573   -9.7593   18.4939 C   0  0  0  0  0  0  0  0  0  0  0  0
   -7.6729  -10.2454   19.4215 O   0  0  0  0  0  0  0  0  0  0  0  0
   -7.5939  -10.9383   17.1314 C   0  0  0  0  0  0  0  0  0  0  0  0
   -7.3773  -12.4225   17.8417 O   0  0  0  0  0  0  0  0  0  0  0  0
   -8.3797  -13.4731   17.5207 C   0  0  0  0  0  0  0  0  0  0  0  0
   -7.8154  -14.5882   16.6127 C   0  0  0  0  0  0  0  0  0  0  0  0
   -8.8682  -15.6578   16.2794 C   0  0  0  0  0  0  0  0  0  0  0  0
   -9.6993  -16.0727   17.4092 N   0  0  0  0  0  0  0  0  0  0  0  0
   -9.0973  -15.6981   18.6828 C   0  0  0  0  0  0  0  0  0  0  0  0
   -8.8682  -14.1776   18.8098 C   0  0  0  0  0  0  0  0  0  0  0  0
   -6.3509   -4.8379   20.1658 H   0  0  0  0  0  0  0  0  0  0  0  0
   -5.0975   -4.9155   21.3268 H   0  0  0  0  0  0  0  0  0  0  0  0
   -6.5053   -3.8078   21.5810 H   0  0  0  0  0  0  0  0  0  0  0  0
   -6.0794   -6.5579   22.3077 H   0  0  0  0  0  0  0  0  0  0  0  0
   -7.4719   -7.0813   24.7118 H   0  0  0  0  0  0  0  0  0  0  0  0
   -6.0254   -6.5351   24.2143 H   0  0  0  0  0  0  0  0  0  0  0  0
   -7.3127   -5.2894   24.6111 H   0  0  0  0  0  0  0  0  0  0  0  0
   -7.5844   -7.5139   20.8323 H   0  0  0  0  0  0  0  0  0  0  0  0
   -7.9792   -5.9555   18.6581 H   0  0  0  0  0  0  0  0  0  0  0  0
   -8.6492   -4.9153   19.9229 H   0  0  0  0  0  0  0  0  0  0  0  0
  -10.9708   -5.6513   19.5357 H   0  0  0  0  0  0  0  0  0  0  0  0
  -10.4122   -5.9919   17.9593 H   0  0  0  0  0  0  0  0  0  0  0  0
  -11.0241   -7.9112   19.8568 H   0  0  0  0  0  0  0  0  0  0  0  0
  -11.0153   -7.6606   18.4515 H   0  0  0  0  0  0  0  0  0  0  0  0
   -6.5918  -10.5647   16.8563 H   0  0  0  0  0  0  0  0  0  0  0  0
   -8.2115  -11.4336   16.3648 H   0  0  0  0  0  0  0  0  0  0  0  0
   -9.2477  -13.0089   17.0395 H   0  0  0  0  0  0  0  0  0  0  0  0
   -7.4118  -14.2022   15.6810 H   0  0  0  0  0  0  0  0  0  0  0  0
   -6.9572  -15.0557   17.1105 H   0  0  0  0  0  0  0  0  0  0  0  0
   -8.3476  -16.5260   15.8666 H   0  0  0  0  0  0  0  0  0  0  0  0
   -9.5312  -15.2839   15.4913 H   0  0  0  0  0  0  0  0  0  0  0  0
   -9.8317  -17.0834   17.3745 H   0  0  0  0  0  0  0  0  0  0  0  0
   -9.7515  -16.0237   19.4995 H   0  0  0  0  0  0  0  0  0  0  0  0
   -8.1483  -16.2322   18.8205 H   0  0  0  0  0  0  0  0  0  0  0  0
   -8.1594  -14.0066   19.6260 H   0  0  0  0  0  0  0  0  0  0  0  0
   -9.8055  -13.6978   19.1203 H   0  0  0  0  0  0  0  0  0  0  0  0
  1  2  1  0
  2  3  1  0
  2  4  1  0
  4  5  1  0
  5  6  1  0
  6  7  1  0
  7  8  1  0
  8  9  1  0
  9 10  2  0
  9 11  1  0
 11 12  1  0
 12 13  1  0
 13 14  1  0
 14 15  1  0
 15 16  1  0
 16 17  1  0
 17 18  1  0
  8  4  1  0
 18 13  1  0
  1 19  1  0
  1 20  1  0
  1 21  1  0
  2 22  1  0
  3 23  1  0
  3 24  1  0
  3 25  1  0
  4 26  1  0
  5 27  1  0
  5 28  1  0
  6 29  1  0
  6 30  1  0
  7 31  1  0
  7 32  1  0
 11 33  1  0
 11 34  1  0
 13 35  1  0
 14 36  1  0
 14 37  1  0
 15 38  1  0
 15 39  1  0
 16 40  1  0
 17 41  1  0
 17 42  1  0
 18 43  1  0
 18 44  1  0
M  END
>  <Energy>  (863) 
771.51402380302113

>  <compound_id>  (863) 
5891

>  <target_id>  (863) 
1

>  <reference_id>  (863) 
70

>  <inspiration_ids>  (863) 
[70, 9]

>  <energy_score>  (863) 
688.4910554156893

>  <distance_score>  (863) 
12.78296038501133

>  <path>  (863) 
/opt/xchem-fragalysis-2/maxwin/BulkDock/SCRATCH/511018/C5891-P70/C5891-P70.minimised.mol

>  <scratch_subdir>  (863) 
/opt/xchem-fragalysis-2/maxwin/BulkDock/SCRATCH/511018/C5891-P70

>  <fragmenstein_runtime>  (863) 
17.529787302017212

>  <fragmenstein_outcome>  (863) 
too moved

>  <fragmenstein_mode>  (863) 
expansion

>  <fragmenstein_error>  (863) 


$$$$
C5891-P9
     RDKit          3D

 44 45  0  0  0  0  0  0  0  0999 V2000
   -5.9294   -4.8178   21.3794 C   0  0  0  0  0  0  0  0  0  0  0  0
   -4.5931   -5.4777   21.1659 C   0  0  0  0  0  0  0  0  0  0  0  0
   -4.4852   -4.6209   19.7543 C   0  0  0  0  0  0  0  0  0  0  0  0
   -4.3121   -7.4827   21.6277 C   0  0  0  0  0  0  0  0  0  0  0  0
   -3.9242   -6.9249   22.8085 C   0  0  0  0  0  0  0  0  0  0  0  0
   -2.7588   -7.7261   22.6446 C   0  0  0  0  0  0  0  0  0  0  0  0
   -3.1493   -9.1608   22.5175 C   0  0  0  0  0  0  0  0  0  0  0  0
   -3.4038   -9.1755   21.1122 N   0  0  0  0  0  0  0  0  0  0  0  0
   -4.0510  -10.8575   20.5586 C   0  0  0  0  0  0  0  0  0  0  0  0
   -5.1814  -10.9594   20.6107 O   0  0  0  0  0  0  0  0  0  0  0  0
   -3.3109  -12.4746   19.6450 C   0  0  0  0  0  0  0  0  0  0  0  0
   -3.1377  -13.9158   19.5274 O   0  0  0  0  0  0  0  0  0  0  0  0
   -3.6062  -14.7417   18.3838 C   0  0  0  0  0  0  0  0  0  0  0  0
   -3.2773  -16.2151   18.7735 C   0  0  0  0  0  0  0  0  0  0  0  0
   -4.0543  -17.3098   18.0426 C   0  0  0  0  0  0  0  0  0  0  0  0
   -5.4790  -17.0227   18.1105 N   0  0  0  0  0  0  0  0  0  0  0  0
   -5.7393  -15.8327   17.3137 C   0  0  0  0  0  0  0  0  0  0  0  0
   -5.0886  -14.6066   17.9551 C   0  0  0  0  0  0  0  0  0  0  0  0
   -5.9818   -3.8865   21.9152 H   0  0  0  0  0  0  0  0  0  0  0  0
   -6.3610   -4.2748   20.5673 H   0  0  0  0  0  0  0  0  0  0  0  0
   -6.5580   -5.5979   21.7370 H   0  0  0  0  0  0  0  0  0  0  0  0
   -3.9236   -4.8850   21.7581 H   0  0  0  0  0  0  0  0  0  0  0  0
   -3.7745   -5.0080   19.0806 H   0  0  0  0  0  0  0  0  0  0  0  0
   -5.3506   -4.5655   19.1681 H   0  0  0  0  0  0  0  0  0  0  0  0
   -4.4933   -3.5546   19.6677 H   0  0  0  0  0  0  0  0  0  0  0  0
   -5.1323   -7.8883   22.0808 H   0  0  0  0  0  0  0  0  0  0  0  0
   -3.2795   -6.1621   23.3373 H   0  0  0  0  0  0  0  0  0  0  0  0
   -4.8462   -6.9558   23.3918 H   0  0  0  0  0  0  0  0  0  0  0  0
   -2.0108   -7.3467   23.4182 H   0  0  0  0  0  0  0  0  0  0  0  0
   -2.1697   -7.4975   21.7785 H   0  0  0  0  0  0  0  0  0  0  0  0
   -3.1483   -9.8781   23.3509 H   0  0  0  0  0  0  0  0  0  0  0  0
   -4.1568   -9.2896   22.6569 H   0  0  0  0  0  0  0  0  0  0  0  0
   -2.6255  -12.0790   18.8555 H   0  0  0  0  0  0  0  0  0  0  0  0
   -4.2101  -12.4288   19.0016 H   0  0  0  0  0  0  0  0  0  0  0  0
   -2.9741  -14.4669   17.5307 H   0  0  0  0  0  0  0  0  0  0  0  0
   -3.4335  -16.3476   19.8521 H   0  0  0  0  0  0  0  0  0  0  0  0
   -2.2009  -16.3779   18.6322 H   0  0  0  0  0  0  0  0  0  0  0  0
   -3.7116  -17.4048   17.0050 H   0  0  0  0  0  0  0  0  0  0  0  0
   -3.8569  -18.2714   18.5294 H   0  0  0  0  0  0  0  0  0  0  0  0
   -6.0203  -17.8024   17.7546 H   0  0  0  0  0  0  0  0  0  0  0  0
   -6.8214  -15.6690   17.2534 H   0  0  0  0  0  0  0  0  0  0  0  0
   -5.3864  -15.9599   16.2826 H   0  0  0  0  0  0  0  0  0  0  0  0
   -5.7243  -14.2678   18.7632 H   0  0  0  0  0  0  0  0  0  0  0  0
   -5.1577  -13.7956   17.2389 H   0  0  0  0  0  0  0  0  0  0  0  0
  1  2  1  0
  2  3  1  0
  2  4  1  0
  4  5  1  0
  5  6  1  0
  6  7  1  0
  7  8  1  0
  8  9  1  0
  9 10  2  0
  9 11  1  0
 11 12  1  0
 12 13  1  0
 13 14  1  0
 14 15  1  0
 15 16  1  0
 16 17  1  0
 17 18  1  0
  8  4  1  0
 18 13  1  0
  1 19  1  0
  1 20  1  0
  1 21  1  0
  2 22  1  0
  3 23  1  0
  3 24  1  0
  3 25  1  0
  4 26  1  0
  5 27  1  0
  5 28  1  0
  6 29  1  0
  6 30  1  0
  7 31  1  0
  7 32  1  0
 11 33  1  0
 11 34  1  0
 13 35  1  0
 14 36  1  0
 14 37  1  0
 15 38  1  0
 15 39  1  0
 16 40  1  0
 17 41  1  0
 17 42  1  0
 18 43  1  0
 18 44  1  0
M  END
>  <Energy>  (864) 
688.44295979976869

>  <compound_id>  (864) 
5891

>  <target_id>  (864) 
1

>  <reference_id>  (864) 
9

>  <inspiration_ids>  (864) 
[70, 9]

>  <energy_score>  (864) 
605.4199914124429

>  <distance_score>  (864) 
12.319984433218655

>  <path>  (864) 
/opt/xchem-fragalysis-2/maxwin/BulkDock/SCRATCH/511018/C5891-P9/C5891-P9.minimised.mol

>  <scratch_subdir>  (864) 
/opt/xchem-fragalysis-2/maxwin/BulkDock/SCRATCH/511018/C5891-P9

>  <fragmenstein_runtime>  (864) 
10.447659969329834

>  <fragmenstein_outcome>  (864) 
too moved

>  <fragmenstein_mode>  (864) 
expansion

>  <fragmenstein_error>  (864) 


$$$$
C5893-P70
     RDKit          3D

 45 46  0  0  0  0  0  0  0  0999 V2000
   -5.8630  -13.1218   23.0483 C   0  0  0  0  0  0  0  0  0  0  0  0
   -6.2526  -11.9361   23.8788 C   0  0  0  0  0  0  0  0  0  0  0  0
   -6.6373  -11.8877   25.2881 O   0  0  0  0  0  0  0  0  0  0  0  0
   -7.1294  -10.5455   25.5903 C   0  0  0  0  0  0  0  0  0  0  0  0
   -6.7506   -9.2707   27.0216 C   0  0  0  0  0  0  0  0  0  0  0  0
   -7.0984   -9.1919   28.4452 C   0  0  0  0  0  0  0  0  0  0  0  0
   -6.6672   -7.6888   28.3614 C   0  0  0  0  0  0  0  0  0  0  0  0
   -6.0201   -6.3043   27.1840 N   0  0  0  0  0  0  0  0  0  0  0  0
   -6.3472   -4.6248   27.5478 C   0  0  0  0  0  0  0  0  0  0  0  0
   -6.9976   -4.1136   28.3484 O   0  0  0  0  0  0  0  0  0  0  0  0
   -5.4029   -3.4812   26.5821 C   0  0  0  0  0  0  0  0  0  0  0  0
   -4.4591   -2.5776   27.5514 O   0  0  0  0  0  0  0  0  0  0  0  0
   -3.0132   -1.9175   27.3921 C   0  0  0  0  0  0  0  0  0  0  0  0
   -2.5618   -0.3614   27.1200 C   0  0  0  0  0  0  0  0  0  0  0  0
   -1.8679    0.4575   28.2197 C   0  0  0  0  0  0  0  0  0  0  0  0
   -0.8181   -0.3065   28.8621 N   0  0  0  0  0  0  0  0  0  0  0  0
   -1.4323   -1.4448   29.5131 C   0  0  0  0  0  0  0  0  0  0  0  0
   -2.0015   -2.4285   28.4956 C   0  0  0  0  0  0  0  0  0  0  0  0
   -6.4701   -7.5238   27.6076 C   0  0  0  0  0  0  0  0  0  0  0  0
   -5.2050  -13.9731   22.8882 H   0  0  0  0  0  0  0  0  0  0  0  0
   -6.4617  -13.9994   23.2020 H   0  0  0  0  0  0  0  0  0  0  0  0
   -4.9278  -12.9803   23.5342 H   0  0  0  0  0  0  0  0  0  0  0  0
   -6.8772  -11.3255   23.2271 H   0  0  0  0  0  0  0  0  0  0  0  0
   -5.2965  -11.5502   24.0051 H   0  0  0  0  0  0  0  0  0  0  0  0
   -8.1581  -10.8661   25.6865 H   0  0  0  0  0  0  0  0  0  0  0  0
   -7.0646  -10.0801   24.6569 H   0  0  0  0  0  0  0  0  0  0  0  0
   -7.6959   -9.1225   26.6063 H   0  0  0  0  0  0  0  0  0  0  0  0
   -8.1535   -9.2602   28.7480 H   0  0  0  0  0  0  0  0  0  0  0  0
   -6.5550   -9.7019   29.2306 H   0  0  0  0  0  0  0  0  0  0  0  0
   -5.8995   -7.6646   29.2957 H   0  0  0  0  0  0  0  0  0  0  0  0
   -7.4927   -7.0896   29.0365 H   0  0  0  0  0  0  0  0  0  0  0  0
   -6.1609   -2.8518   26.1086 H   0  0  0  0  0  0  0  0  0  0  0  0
   -4.8449   -3.8453   25.7236 H   0  0  0  0  0  0  0  0  0  0  0  0
   -2.8336   -2.3718   26.4469 H   0  0  0  0  0  0  0  0  0  0  0  0
   -1.7449   -0.4176   26.4037 H   0  0  0  0  0  0  0  0  0  0  0  0
   -3.2535    0.3036   26.6037 H   0  0  0  0  0  0  0  0  0  0  0  0
   -1.4137    1.3414   27.7544 H   0  0  0  0  0  0  0  0  0  0  0  0
   -2.5440    0.8460   28.9808 H   0  0  0  0  0  0  0  0  0  0  0  0
   -0.3414    0.2739   29.5509 H   0  0  0  0  0  0  0  0  0  0  0  0
   -0.6634   -1.9641   30.0980 H   0  0  0  0  0  0  0  0  0  0  0  0
   -2.1916   -1.1257   30.2361 H   0  0  0  0  0  0  0  0  0  0  0  0
   -2.4394   -3.2218   29.0944 H   0  0  0  0  0  0  0  0  0  0  0  0
   -1.1337   -2.8564   27.9750 H   0  0  0  0  0  0  0  0  0  0  0  0
   -6.9541   -7.2789   26.6047 H   0  0  0  0  0  0  0  0  0  0  0  0
   -5.3642   -7.8904   27.1681 H   0  0  0  0  0  0  0  0  0  0  0  0
  1  2  1  0
  2  3  1  0
  3  4  1  0
  4  5  1  0
  5  6  1  0
  6  7  1  0
  7  8  1  0
  8  9  1  0
  9 10  2  0
  9 11  1  0
 11 12  1  0
 12 13  1  0
 13 14  1  0
 14 15  1  0
 15 16  1  0
 16 17  1  0
 17 18  1  0
  8 19  1  0
 19  5  1  0
 18 13  1  0
  1 20  1  0
  1 21  1  0
  1 22  1  0
  2 23  1  0
  2 24  1  0
  4 25  1  0
  4 26  1  0
  5 27  1  0
  6 28  1  0
  6 29  1  0
  7 30  1  0
  7 31  1  0
 11 32  1  0
 11 33  1  0
 13 34  1  0
 14 35  1  0
 14 36  1  0
 15 37  1  0
 15 38  1  0
 16 39  1  0
 17 40  1  0
 17 41  1  0
 18 42  1  0
 18 43  1  0
 19 44  1  0
 19 45  1  0
M  END
>  <Energy>  (865) 
1129.6210056694938

>  <compound_id>  (865) 
5893

>  <target_id>  (865) 
1

>  <reference_id>  (865) 
70

>  <inspiration_ids>  (865) 
[70, 9]

>  <energy_score>  (865) 
1035.0308009007356

>  <distance_score>  (865) 
10.279445441581277

>  <path>  (865) 
/opt/xchem-fragalysis-2/maxwin/BulkDock/SCRATCH/511018/C5893-P70/C5893-P70.minimised.mol

>  <scratch_subdir>  (865) 
/opt/xchem-fragalysis-2/maxwin/BulkDock/SCRATCH/511018/C5893-P70

>  <fragmenstein_runtime>  (865) 
13.77185606956482

>  <fragmenstein_outcome>  (865) 
too moved

>  <fragmenstein_mode>  (865) 
expansion

>  <fragmenstein_error>  (865) 


$$$$
C5893-P9
     RDKit          3D

 45 46  0  0  0  0  0  0  0  0999 V2000
  -11.5052   -7.1840   20.6255 C   0  0  0  0  0  0  0  0  0  0  0  0
  -11.4532   -7.1056   22.1427 C   0  0  0  0  0  0  0  0  0  0  0  0
  -10.4872   -6.1474   22.6472 O   0  0  0  0  0  0  0  0  0  0  0  0
  -10.7700   -4.7512   22.4373 C   0  0  0  0  0  0  0  0  0  0  0  0
  -10.4013   -3.9200   23.6813 C   0  0  0  0  0  0  0  0  0  0  0  0
   -9.0731   -3.4297   23.8758 C   0  0  0  0  0  0  0  0  0  0  0  0
  -10.0681   -2.0390   24.1485 C   0  0  0  0  0  0  0  0  0  0  0  0
   -9.3001   -0.9697   24.2989 N   0  0  0  0  0  0  0  0  0  0  0  0
   -7.8952   -1.0115   25.1180 C   0  0  0  0  0  0  0  0  0  0  0  0
   -7.2912   -1.8787   25.5742 O   0  0  0  0  0  0  0  0  0  0  0  0
   -7.3552    0.6950   25.2203 C   0  0  0  0  0  0  0  0  0  0  0  0
   -6.2497    1.7757   25.6894 O   0  0  0  0  0  0  0  0  0  0  0  0
   -4.7829    1.9472   25.5501 C   0  0  0  0  0  0  0  0  0  0  0  0
   -4.1764    3.1606   24.7008 C   0  0  0  0  0  0  0  0  0  0  0  0
   -2.6360    3.2935   24.7477 C   0  0  0  0  0  0  0  0  0  0  0  0
   -1.9393    2.1959   25.4089 N   0  0  0  0  0  0  0  0  0  0  0  0
   -2.5351    1.8320   26.6971 C   0  0  0  0  0  0  0  0  0  0  0  0
   -3.9911    2.2685   26.8039 C   0  0  0  0  0  0  0  0  0  0  0  0
  -10.5244   -2.2993   23.5559 C   0  0  0  0  0  0  0  0  0  0  0  0
  -10.5034   -7.3036   20.2045 H   0  0  0  0  0  0  0  0  0  0  0  0
  -11.8786   -6.2360   20.2216 H   0  0  0  0  0  0  0  0  0  0  0  0
  -12.1780   -7.9667   20.2798 H   0  0  0  0  0  0  0  0  0  0  0  0
  -12.4354   -6.8377   22.5430 H   0  0  0  0  0  0  0  0  0  0  0  0
  -11.1659   -8.0687   22.5624 H   0  0  0  0  0  0  0  0  0  0  0  0
  -10.2038   -4.4257   21.5585 H   0  0  0  0  0  0  0  0  0  0  0  0
  -11.8366   -4.6111   22.2285 H   0  0  0  0  0  0  0  0  0  0  0  0
  -10.8688   -4.3102   24.5952 H   0  0  0  0  0  0  0  0  0  0  0  0
   -8.4417   -3.3360   22.9858 H   0  0  0  0  0  0  0  0  0  0  0  0
   -8.5421   -3.8267   24.7460 H   0  0  0  0  0  0  0  0  0  0  0  0
  -10.9876   -1.7937   25.1074 H   0  0  0  0  0  0  0  0  0  0  0  0
   -9.7377   -2.3644   25.2834 H   0  0  0  0  0  0  0  0  0  0  0  0
   -7.9368    0.6699   26.1589 H   0  0  0  0  0  0  0  0  0  0  0  0
   -8.0054    1.1980   24.4919 H   0  0  0  0  0  0  0  0  0  0  0  0
   -4.4173    0.9614   25.3556 H   0  0  0  0  0  0  0  0  0  0  0  0
   -4.4731    3.2591   23.6571 H   0  0  0  0  0  0  0  0  0  0  0  0
   -4.5494    4.0828   25.1197 H   0  0  0  0  0  0  0  0  0  0  0  0
   -2.2543    3.3722   23.7230 H   0  0  0  0  0  0  0  0  0  0  0  0
   -2.3716    4.2377   25.2413 H   0  0  0  0  0  0  0  0  0  0  0  0
   -0.9693    2.4689   25.5710 H   0  0  0  0  0  0  0  0  0  0  0  0
   -2.4492    0.7473   26.8224 H   0  0  0  0  0  0  0  0  0  0  0  0
   -1.9642    2.2913   27.5130 H   0  0  0  0  0  0  0  0  0  0  0  0
   -4.4969    1.8373   27.6126 H   0  0  0  0  0  0  0  0  0  0  0  0
   -3.9488    3.3280   27.0364 H   0  0  0  0  0  0  0  0  0  0  0  0
  -11.7029   -1.9309   23.4354 H   0  0  0  0  0  0  0  0  0  0  0  0
  -10.3418   -2.1033   22.3550 H   0  0  0  0  0  0  0  0  0  0  0  0
  1  2  1  0
  2  3  1  0
  3  4  1  0
  4  5  1  0
  5  6  1  0
  6  7  1  0
  7  8  1  0
  8  9  1  0
  9 10  2  0
  9 11  1  0
 11 12  1  0
 12 13  1  0
 13 14  1  0
 14 15  1  0
 15 16  1  0
 16 17  1  0
 17 18  1  0
  8 19  1  0
 19  5  1  0
 18 13  1  0
  1 20  1  0
  1 21  1  0
  1 22  1  0
  2 23  1  0
  2 24  1  0
  4 25  1  0
  4 26  1  0
  5 27  1  0
  6 28  1  0
  6 29  1  0
  7 30  1  0
  7 31  1  0
 11 32  1  0
 11 33  1  0
 13 34  1  0
 14 35  1  0
 14 36  1  0
 15 37  1  0
 15 38  1  0
 16 39  1  0
 17 40  1  0
 17 41  1  0
 18 42  1  0
 18 43  1  0
 19 44  1  0
 19 45  1  0
M  END
>  <Energy>  (866) 
895.3940152186002

>  <compound_id>  (866) 
5893

>  <target_id>  (866) 
1

>  <reference_id>  (866) 
9

>  <inspiration_ids>  (866) 
[70, 9]

>  <energy_score>  (866) 
800.8038104498623

>  <distance_score>  (866) 
11.097301830043552

>  <path>  (866) 
/opt/xchem-fragalysis-2/maxwin/BulkDock/SCRATCH/511018/C5893-P9/C5893-P9.minimised.mol

>  <scratch_subdir>  (866) 
/opt/xchem-fragalysis-2/maxwin/BulkDock/SCRATCH/511018/C5893-P9

>  <fragmenstein_runtime>  (866) 
23.025833129882812

>  <fragmenstein_outcome>  (866) 
too moved

>  <fragmenstein_mode>  (866) 
expansion

>  <fragmenstein_error>  (866) 


$$$$
C5894-P70
     RDKit          3D

 47 48  0  0  0  0  0  0  0  0999 V2000
   -3.3631  -10.2197   20.7895 C   0  0  0  0  0  0  0  0  0  0  0  0
   -4.2976  -11.4751   19.9927 C   0  0  0  0  0  0  0  0  0  0  0  0
   -3.9176  -11.1007   18.4278 C   0  0  0  0  0  0  0  0  0  0  0  0
   -2.6403  -12.2887   19.8966 C   0  0  0  0  0  0  0  0  0  0  0  0
   -6.2598  -12.0355   20.5723 C   0  0  0  0  0  0  0  0  0  0  0  0
   -6.7379  -12.2715   22.2314 C   0  0  0  0  0  0  0  0  0  0  0  0
   -7.9815  -13.0610   22.1926 C   0  0  0  0  0  0  0  0  0  0  0  0
   -8.0886  -13.5620   20.7636 C   0  0  0  0  0  0  0  0  0  0  0  0
   -7.1242  -13.3901   19.4515 N   0  0  0  0  0  0  0  0  0  0  0  0
   -7.9241  -13.2581   18.2867 C   0  0  0  0  0  0  0  0  0  0  0  0
   -8.3550  -12.2856   17.7461 O   0  0  0  0  0  0  0  0  0  0  0  0
   -8.1894  -14.6716   17.6607 C   0  0  0  0  0  0  0  0  0  0  0  0
   -8.1500  -15.7772   18.5563 O   0  0  0  0  0  0  0  0  0  0  0  0
   -8.9276  -16.9254   18.2245 C   0  0  0  0  0  0  0  0  0  0  0  0
  -10.4312  -16.6584   18.3777 C   0  0  0  0  0  0  0  0  0  0  0  0
  -11.0501  -17.3708   19.5760 C   0  0  0  0  0  0  0  0  0  0  0  0
  -10.7724  -18.7945   19.6553 N   0  0  0  0  0  0  0  0  0  0  0  0
   -9.4185  -19.1655   19.2553 C   0  0  0  0  0  0  0  0  0  0  0  0
   -8.4422  -18.0121   19.1877 C   0  0  0  0  0  0  0  0  0  0  0  0
   -3.0855   -9.4061   20.0991 H   0  0  0  0  0  0  0  0  0  0  0  0
   -3.7419   -9.8716   21.7467 H   0  0  0  0  0  0  0  0  0  0  0  0
   -2.3369  -10.4895   21.0100 H   0  0  0  0  0  0  0  0  0  0  0  0
   -3.1184  -11.6499   17.9039 H   0  0  0  0  0  0  0  0  0  0  0  0
   -3.3841  -10.1411   18.3156 H   0  0  0  0  0  0  0  0  0  0  0  0
   -4.7909  -11.2714   17.7915 H   0  0  0  0  0  0  0  0  0  0  0  0
   -2.0269  -12.3539   20.7819 H   0  0  0  0  0  0  0  0  0  0  0  0
   -1.9562  -11.6167   19.3435 H   0  0  0  0  0  0  0  0  0  0  0  0
   -2.4576  -13.2277   19.4015 H   0  0  0  0  0  0  0  0  0  0  0  0
   -6.7952  -11.3455   20.0735 H   0  0  0  0  0  0  0  0  0  0  0  0
   -6.9582  -11.3848   22.8172 H   0  0  0  0  0  0  0  0  0  0  0  0
   -6.0515  -12.8561   22.8500 H   0  0  0  0  0  0  0  0  0  0  0  0
   -7.9489  -13.9000   22.8996 H   0  0  0  0  0  0  0  0  0  0  0  0
   -8.8628  -12.4795   22.4878 H   0  0  0  0  0  0  0  0  0  0  0  0
   -8.0648  -14.6637   20.8632 H   0  0  0  0  0  0  0  0  0  0  0  0
   -9.1360  -13.4918   20.4111 H   0  0  0  0  0  0  0  0  0  0  0  0
   -7.4269  -14.8312   16.8904 H   0  0  0  0  0  0  0  0  0  0  0  0
   -9.1642  -14.6133   17.1644 H   0  0  0  0  0  0  0  0  0  0  0  0
   -8.7000  -17.2090   17.1920 H   0  0  0  0  0  0  0  0  0  0  0  0
  -10.6335  -15.5869   18.4894 H   0  0  0  0  0  0  0  0  0  0  0  0
  -10.9459  -16.9602   17.4646 H   0  0  0  0  0  0  0  0  0  0  0  0
  -10.6897  -16.8953   20.4972 H   0  0  0  0  0  0  0  0  0  0  0  0
  -12.1356  -17.2178   19.5708 H   0  0  0  0  0  0  0  0  0  0  0  0
  -11.4694  -19.3212   19.1338 H   0  0  0  0  0  0  0  0  0  0  0  0
   -9.0590  -19.9186   19.9622 H   0  0  0  0  0  0  0  0  0  0  0  0
   -9.4108  -19.6108   18.2620 H   0  0  0  0  0  0  0  0  0  0  0  0
   -7.4538  -18.3652   18.8677 H   0  0  0  0  0  0  0  0  0  0  0  0
   -8.2870  -17.5929   20.1916 H   0  0  0  0  0  0  0  0  0  0  0  0
  1  2  1  0
  2  3  1  0
  2  4  1  0
  2  5  1  0
  5  6  1  0
  6  7  1  0
  7  8  1  0
  8  9  1  0
  9 10  1  0
 10 11  2  0
 10 12  1  0
 12 13  1  0
 13 14  1  0
 14 15  1  0
 15 16  1  0
 16 17  1  0
 17 18  1  0
 18 19  1  0
  9  5  1  0
 19 14  1  0
  1 20  1  0
  1 21  1  0
  1 22  1  0
  3 23  1  0
  3 24  1  0
  3 25  1  0
  4 26  1  0
  4 27  1  0
  4 28  1  0
  5 29  1  0
  6 30  1  0
  6 31  1  0
  7 32  1  0
  7 33  1  0
  8 34  1  0
  8 35  1  0
 12 36  1  0
 12 37  1  0
 14 38  1  0
 15 39  1  0
 15 40  1  0
 16 41  1  0
 16 42  1  0
 17 43  1  0
 18 44  1  0
 18 45  1  0
 19 46  1  0
 19 47  1  0
M  END
>  <Energy>  (867) 
422.22961051506246

>  <compound_id>  (867) 
5894

>  <target_id>  (867) 
1

>  <reference_id>  (867) 
70

>  <inspiration_ids>  (867) 
[70, 9]

>  <energy_score>  (867) 
288.98654684033625

>  <distance_score>  (867) 
13.746442795089928

>  <path>  (867) 
/opt/xchem-fragalysis-2/maxwin/BulkDock/SCRATCH/511018/C5894-P70/C5894-P70.minimised.mol

>  <scratch_subdir>  (867) 
/opt/xchem-fragalysis-2/maxwin/BulkDock/SCRATCH/511018/C5894-P70

>  <fragmenstein_runtime>  (867) 
24.708696126937866

>  <fragmenstein_outcome>  (867) 
too moved

>  <fragmenstein_mode>  (867) 
expansion

>  <fragmenstein_error>  (867) 


$$$$
C5894-P9
     RDKit          3D

 47 48  0  0  0  0  0  0  0  0999 V2000
   -1.8900  -13.3419   25.8932 C   0  0  0  0  0  0  0  0  0  0  0  0
   -2.8849  -12.6096   26.7830 C   0  0  0  0  0  0  0  0  0  0  0  0
   -2.7657  -11.1151   26.4047 C   0  0  0  0  0  0  0  0  0  0  0  0
   -2.3057  -12.6918   28.2327 C   0  0  0  0  0  0  0  0  0  0  0  0
   -4.3726  -13.3347   26.8668 C   0  0  0  0  0  0  0  0  0  0  0  0
   -5.4256  -12.3895   27.4806 C   0  0  0  0  0  0  0  0  0  0  0  0
   -6.3332  -12.2220   26.3082 C   0  0  0  0  0  0  0  0  0  0  0  0
   -5.5651  -13.0057   25.2619 C   0  0  0  0  0  0  0  0  0  0  0  0
   -5.1481  -14.3123   25.8383 N   0  0  0  0  0  0  0  0  0  0  0  0
   -4.6351  -15.2004   24.7828 C   0  0  0  0  0  0  0  0  0  0  0  0
   -3.5110  -15.3509   24.3644 O   0  0  0  0  0  0  0  0  0  0  0  0
   -5.8477  -16.1558   24.1518 C   0  0  0  0  0  0  0  0  0  0  0  0
   -5.6695  -16.7933   22.8503 O   0  0  0  0  0  0  0  0  0  0  0  0
   -6.5110  -17.9282   22.4995 C   0  0  0  0  0  0  0  0  0  0  0  0
   -5.8909  -18.6399   21.2765 C   0  0  0  0  0  0  0  0  0  0  0  0
   -6.7474  -19.8006   20.7611 C   0  0  0  0  0  0  0  0  0  0  0  0
   -8.1047  -19.3753   20.4444 N   0  0  0  0  0  0  0  0  0  0  0  0
   -8.7487  -18.7450   21.5918 C   0  0  0  0  0  0  0  0  0  0  0  0
   -7.9489  -17.5450   22.1282 C   0  0  0  0  0  0  0  0  0  0  0  0
   -2.1705  -13.2907   24.8490 H   0  0  0  0  0  0  0  0  0  0  0  0
   -1.8232  -14.3993   26.1720 H   0  0  0  0  0  0  0  0  0  0  0  0
   -0.8779  -12.9278   25.9763 H   0  0  0  0  0  0  0  0  0  0  0  0
   -1.7262  -10.7707   26.4891 H   0  0  0  0  0  0  0  0  0  0  0  0
   -3.3405  -10.4739   27.0750 H   0  0  0  0  0  0  0  0  0  0  0  0
   -3.0308  -10.9865   25.3577 H   0  0  0  0  0  0  0  0  0  0  0  0
   -2.2131  -13.7313   28.5680 H   0  0  0  0  0  0  0  0  0  0  0  0
   -2.9455  -12.1621   28.9468 H   0  0  0  0  0  0  0  0  0  0  0  0
   -1.3057  -12.2456   28.2932 H   0  0  0  0  0  0  0  0  0  0  0  0
   -4.1905  -14.0998   27.6379 H   0  0  0  0  0  0  0  0  0  0  0  0
   -5.9574  -12.8842   28.3021 H   0  0  0  0  0  0  0  0  0  0  0  0
   -5.0404  -11.4456   27.8666 H   0  0  0  0  0  0  0  0  0  0  0  0
   -6.5244  -11.1902   26.0295 H   0  0  0  0  0  0  0  0  0  0  0  0
   -7.3034  -12.6924   26.5074 H   0  0  0  0  0  0  0  0  0  0  0  0
   -4.7208  -12.4518   24.8430 H   0  0  0  0  0  0  0  0  0  0  0  0
   -6.2339  -13.2120   24.4172 H   0  0  0  0  0  0  0  0  0  0  0  0
   -6.0017  -16.9431   24.8990 H   0  0  0  0  0  0  0  0  0  0  0  0
   -6.7529  -15.5432   24.0949 H   0  0  0  0  0  0  0  0  0  0  0  0
   -6.5135  -18.6241   23.3475 H   0  0  0  0  0  0  0  0  0  0  0  0
   -4.8911  -19.0053   21.5412 H   0  0  0  0  0  0  0  0  0  0  0  0
   -5.7327  -17.9072   20.4734 H   0  0  0  0  0  0  0  0  0  0  0  0
   -6.2828  -20.2110   19.8579 H   0  0  0  0  0  0  0  0  0  0  0  0
   -6.7700  -20.6057   21.5053 H   0  0  0  0  0  0  0  0  0  0  0  0
   -8.6599  -20.1559   20.0991 H   0  0  0  0  0  0  0  0  0  0  0  0
   -9.7438  -18.3994   21.2917 H   0  0  0  0  0  0  0  0  0  0  0  0
   -8.8945  -19.4817   22.3913 H   0  0  0  0  0  0  0  0  0  0  0  0
   -7.9337  -16.7402   21.3819 H   0  0  0  0  0  0  0  0  0  0  0  0
   -8.4555  -17.1266   23.0058 H   0  0  0  0  0  0  0  0  0  0  0  0
  1  2  1  0
  2  3  1  0
  2  4  1  0
  2  5  1  0
  5  6  1  0
  6  7  1  0
  7  8  1  0
  8  9  1  0
  9 10  1  0
 10 11  2  0
 10 12  1  0
 12 13  1  0
 13 14  1  0
 14 15  1  0
 15 16  1  0
 16 17  1  0
 17 18  1  0
 18 19  1  0
  9  5  1  0
 19 14  1  0
  1 20  1  0
  1 21  1  0
  1 22  1  0
  3 23  1  0
  3 24  1  0
  3 25  1  0
  4 26  1  0
  4 27  1  0
  4 28  1  0
  5 29  1  0
  6 30  1  0
  6 31  1  0
  7 32  1  0
  7 33  1  0
  8 34  1  0
  8 35  1  0
 12 36  1  0
 12 37  1  0
 14 38  1  0
 15 39  1  0
 15 40  1  0
 16 41  1  0
 16 42  1  0
 17 43  1  0
 18 44  1  0
 18 45  1  0
 19 46  1  0
 19 47  1  0
M  END
>  <Energy>  (868) 
140.41577837129586

>  <compound_id>  (868) 
5894

>  <target_id>  (868) 
1

>  <reference_id>  (868) 
9

>  <inspiration_ids>  (868) 
[70, 9]

>  <energy_score>  (868) 
7.172714696574303

>  <distance_score>  (868) 
14.012764662659798

>  <path>  (868) 
/opt/xchem-fragalysis-2/maxwin/BulkDock/SCRATCH/511018/C5894-P9/C5894-P9.minimised.mol

>  <scratch_subdir>  (868) 
/opt/xchem-fragalysis-2/maxwin/BulkDock/SCRATCH/511018/C5894-P9

>  <fragmenstein_runtime>  (868) 
30.18541693687439

>  <fragmenstein_outcome>  (868) 
too moved

>  <fragmenstein_mode>  (868) 
expansion

>  <fragmenstein_error>  (868) 


$$$$
C5895-P70
     RDKit          3D

 41 43  0  0  0  0  0  0  0  0999 V2000
   -5.1326  -10.8513   16.4811 O   0  0  0  0  0  0  0  0  0  0  0  0
   -4.0683  -11.1035   15.9765 C   0  0  0  0  0  0  0  0  0  0  0  0
   -3.9027  -12.5511   15.3159 C   0  0  0  0  0  0  0  0  0  0  0  0
   -5.1123  -13.3513   15.4036 O   0  0  0  0  0  0  0  0  0  0  0  0
   -5.2044  -14.5447   14.6078 C   0  0  0  0  0  0  0  0  0  0  0  0
   -6.3268  -14.3879   13.5597 C   0  0  0  0  0  0  0  0  0  0  0  0
   -7.3015  -15.5706   13.5249 C   0  0  0  0  0  0  0  0  0  0  0  0
   -7.9374  -15.7685   14.8208 N   0  0  0  0  0  0  0  0  0  0  0  0
   -7.0033  -15.7166   15.9441 C   0  0  0  0  0  0  0  0  0  0  0  0
   -5.5223  -15.7144   15.5393 C   0  0  0  0  0  0  0  0  0  0  0  0
   -2.9060  -10.2673   15.7719 N   0  0  0  0  0  0  0  0  0  0  0  0
   -2.6976   -8.8056   16.0183 C   0  0  0  0  0  0  0  0  0  0  0  0
   -1.2271   -8.4129   16.0189 C   0  0  0  0  0  0  0  0  0  0  0  0
   -0.6258   -9.6815   16.5447 C   0  0  0  0  0  0  0  0  0  0  0  0
   -1.9123  -10.3718   17.0169 C   0  0  0  0  0  0  0  0  0  0  0  0
   -2.2017   -9.8212   18.4493 C   0  0  0  0  0  0  0  0  0  0  0  0
   -1.7114   -8.7061   18.9856 N   0  0  0  0  0  0  0  0  0  0  0  0
   -1.8373   -8.9013   20.3266 C   0  0  0  0  0  0  0  0  0  0  0  0
   -2.4648  -10.0202   20.6713 N   0  0  0  0  0  0  0  0  0  0  0  0
   -2.7396  -10.5577   19.4670 N   0  0  0  0  0  0  0  0  0  0  0  0
   -3.6610  -12.3980   14.2584 H   0  0  0  0  0  0  0  0  0  0  0  0
   -3.0863  -13.0817   15.8132 H   0  0  0  0  0  0  0  0  0  0  0  0
   -4.2426  -14.7273   14.1136 H   0  0  0  0  0  0  0  0  0  0  0  0
   -6.8844  -13.4594   13.7401 H   0  0  0  0  0  0  0  0  0  0  0  0
   -5.8701  -14.2759   12.5686 H   0  0  0  0  0  0  0  0  0  0  0  0
   -6.7705  -16.4745   13.2077 H   0  0  0  0  0  0  0  0  0  0  0  0
   -8.0767  -15.3801   12.7750 H   0  0  0  0  0  0  0  0  0  0  0  0
   -8.4733  -16.6321   14.8361 H   0  0  0  0  0  0  0  0  0  0  0  0
   -7.2211  -14.8017   16.5072 H   0  0  0  0  0  0  0  0  0  0  0  0
   -7.2026  -16.5441   16.6339 H   0  0  0  0  0  0  0  0  0  0  0  0
   -4.9124  -15.6705   16.4400 H   0  0  0  0  0  0  0  0  0  0  0  0
   -5.2328  -16.6367   15.0303 H   0  0  0  0  0  0  0  0  0  0  0  0
   -3.1704   -8.3179   15.1540 H   0  0  0  0  0  0  0  0  0  0  0  0
   -3.3033   -8.4274   16.8505 H   0  0  0  0  0  0  0  0  0  0  0  0
   -0.8597   -8.1964   15.0103 H   0  0  0  0  0  0  0  0  0  0  0  0
   -1.0415   -7.5372   16.6476 H   0  0  0  0  0  0  0  0  0  0  0  0
    0.1339   -9.5210   17.3154 H   0  0  0  0  0  0  0  0  0  0  0  0
   -0.1669  -10.2506   15.7272 H   0  0  0  0  0  0  0  0  0  0  0  0
   -1.7178  -11.4469   17.1353 H   0  0  0  0  0  0  0  0  0  0  0  0
   -1.4431   -8.2478   21.0842 H   0  0  0  0  0  0  0  0  0  0  0  0
   -3.2490  -11.4321   19.4195 H   0  0  0  0  0  0  0  0  0  0  0  0
  1  2  2  0
  2  3  1  0
  3  4  1  0
  4  5  1  0
  5  6  1  0
  6  7  1  0
  7  8  1  0
  8  9  1  0
  9 10  1  0
  2 11  1  0
 11 12  1  0
 12 13  1  0
 13 14  1  0
 14 15  1  0
 15 16  1  0
 16 17  2  0
 17 18  1  0
 18 19  2  0
 19 20  1  0
 10  5  1  0
 15 11  1  0
 20 16  1  0
  3 21  1  0
  3 22  1  0
  5 23  1  0
  6 24  1  0
  6 25  1  0
  7 26  1  0
  7 27  1  0
  8 28  1  0
  9 29  1  0
  9 30  1  0
 10 31  1  0
 10 32  1  0
 12 33  1  0
 12 34  1  0
 13 35  1  0
 13 36  1  0
 14 37  1  0
 14 38  1  0
 15 39  1  0
 18 40  1  0
 20 41  1  0
M  END
>  <Energy>  (869) 
126.04464545995336

>  <compound_id>  (869) 
5895

>  <target_id>  (869) 
1

>  <reference_id>  (869) 
70

>  <inspiration_ids>  (869) 
[70, 9]

>  <energy_score>  (869) 
41.112604965591856

>  <distance_score>  (869) 
13.812233144114423

>  <path>  (869) 
/opt/xchem-fragalysis-2/maxwin/BulkDock/SCRATCH/511018/C5895-P70/C5895-P70.minimised.mol

>  <scratch_subdir>  (869) 
/opt/xchem-fragalysis-2/maxwin/BulkDock/SCRATCH/511018/C5895-P70

>  <fragmenstein_runtime>  (869) 
16.966965198516846

>  <fragmenstein_outcome>  (869) 
too moved

>  <fragmenstein_mode>  (869) 
expansion

>  <fragmenstein_error>  (869) 


$$$$
C5895-P9
     RDKit          3D

 41 43  0  0  0  0  0  0  0  0999 V2000
   -5.0274  -10.9601   14.0530 O   0  0  0  0  0  0  0  0  0  0  0  0
   -4.7741  -10.8462   15.2296 C   0  0  0  0  0  0  0  0  0  0  0  0
   -4.7311  -12.1984   16.0743 C   0  0  0  0  0  0  0  0  0  0  0  0
   -4.9081  -13.4895   15.4194 O   0  0  0  0  0  0  0  0  0  0  0  0
   -6.2464  -13.9899   15.1911 C   0  0  0  0  0  0  0  0  0  0  0  0
   -6.8596  -14.6230   16.4467 C   0  0  0  0  0  0  0  0  0  0  0  0
   -8.2001  -15.3055   16.1633 C   0  0  0  0  0  0  0  0  0  0  0  0
   -8.0873  -16.3186   15.1236 N   0  0  0  0  0  0  0  0  0  0  0  0
   -7.5259  -15.7734   13.8909 C   0  0  0  0  0  0  0  0  0  0  0  0
   -6.1723  -15.0978   14.1204 C   0  0  0  0  0  0  0  0  0  0  0  0
   -4.5908   -9.6399   16.0525 N   0  0  0  0  0  0  0  0  0  0  0  0
   -4.7692   -8.2062   15.7156 C   0  0  0  0  0  0  0  0  0  0  0  0
   -3.9235   -7.7195   14.5562 C   0  0  0  0  0  0  0  0  0  0  0  0
   -2.7020   -8.5591   14.7265 C   0  0  0  0  0  0  0  0  0  0  0  0
   -3.0358   -9.1949   16.0660 C   0  0  0  0  0  0  0  0  0  0  0  0
   -2.4490   -8.2826   17.2248 C   0  0  0  0  0  0  0  0  0  0  0  0
   -1.7659   -8.6621   18.2926 N   0  0  0  0  0  0  0  0  0  0  0  0
   -1.2395   -7.5003   18.7965 C   0  0  0  0  0  0  0  0  0  0  0  0
   -1.6107   -6.3882   18.1698 N   0  0  0  0  0  0  0  0  0  0  0  0
   -2.3405   -6.8980   17.1648 N   0  0  0  0  0  0  0  0  0  0  0  0
   -3.7357  -12.2338   16.5296 H   0  0  0  0  0  0  0  0  0  0  0  0
   -5.4682  -12.1049   16.8783 H   0  0  0  0  0  0  0  0  0  0  0  0
   -6.8731  -13.1675   14.8257 H   0  0  0  0  0  0  0  0  0  0  0  0
   -6.1540  -15.3529   16.8628 H   0  0  0  0  0  0  0  0  0  0  0  0
   -6.9959  -13.8561   17.2173 H   0  0  0  0  0  0  0  0  0  0  0  0
   -8.9465  -14.5546   15.8766 H   0  0  0  0  0  0  0  0  0  0  0  0
   -8.5606  -15.7796   17.0828 H   0  0  0  0  0  0  0  0  0  0  0  0
   -9.0083  -16.7114   14.9345 H   0  0  0  0  0  0  0  0  0  0  0  0
   -7.4024  -16.5821   13.1633 H   0  0  0  0  0  0  0  0  0  0  0  0
   -8.2279  -15.0550   13.4499 H   0  0  0  0  0  0  0  0  0  0  0  0
   -5.8052  -14.6681   13.1804 H   0  0  0  0  0  0  0  0  0  0  0  0
   -5.4241  -15.8459   14.4158 H   0  0  0  0  0  0  0  0  0  0  0  0
   -5.8157   -8.1369   15.3858 H   0  0  0  0  0  0  0  0  0  0  0  0
   -4.7557   -7.5701   16.6040 H   0  0  0  0  0  0  0  0  0  0  0  0
   -4.4022   -7.9305   13.5932 H   0  0  0  0  0  0  0  0  0  0  0  0
   -3.7376   -6.6431   14.6027 H   0  0  0  0  0  0  0  0  0  0  0  0
   -1.7694   -7.9879   14.6997 H   0  0  0  0  0  0  0  0  0  0  0  0
   -2.6510   -9.3170   13.9361 H   0  0  0  0  0  0  0  0  0  0  0  0
   -2.4771  -10.1380   16.1485 H   0  0  0  0  0  0  0  0  0  0  0  0
   -0.5606   -7.4767   19.6366 H   0  0  0  0  0  0  0  0  0  0  0  0
   -2.6992   -6.2600   16.4658 H   0  0  0  0  0  0  0  0  0  0  0  0
  1  2  2  0
  2  3  1  0
  3  4  1  0
  4  5  1  0
  5  6  1  0
  6  7  1  0
  7  8  1  0
  8  9  1  0
  9 10  1  0
  2 11  1  0
 11 12  1  0
 12 13  1  0
 13 14  1  0
 14 15  1  0
 15 16  1  0
 16 17  2  0
 17 18  1  0
 18 19  2  0
 19 20  1  0
 10  5  1  0
 15 11  1  0
 20 16  1  0
  3 21  1  0
  3 22  1  0
  5 23  1  0
  6 24  1  0
  6 25  1  0
  7 26  1  0
  7 27  1  0
  8 28  1  0
  9 29  1  0
  9 30  1  0
 10 31  1  0
 10 32  1  0
 12 33  1  0
 12 34  1  0
 13 35  1  0
 13 36  1  0
 14 37  1  0
 14 38  1  0
 15 39  1  0
 18 40  1  0
 20 41  1  0
M  END
>  <Energy>  (870) 
118.10872638054249

>  <compound_id>  (870) 
5895

>  <target_id>  (870) 
1

>  <reference_id>  (870) 
9

>  <inspiration_ids>  (870) 
[70, 9]

>  <energy_score>  (870) 
33.17668588617764

>  <distance_score>  (870) 
13.73520053813283

>  <path>  (870) 
/opt/xchem-fragalysis-2/maxwin/BulkDock/SCRATCH/511018/C5895-P9/C5895-P9.minimised.mol

>  <scratch_subdir>  (870) 
/opt/xchem-fragalysis-2/maxwin/BulkDock/SCRATCH/511018/C5895-P9

>  <fragmenstein_runtime>  (870) 
10.907313823699951

>  <fragmenstein_outcome>  (870) 
too moved

>  <fragmenstein_mode>  (870) 
expansion

>  <fragmenstein_error>  (870) 


$$$$
C5896-P70
     RDKit          3D

 43 44  0  0  0  0  0  0  0  0999 V2000
   -4.2992   -4.2030   19.6674 N   0  0  0  0  0  0  0  0  0  0  0  0
   -4.3422   -4.8380   21.1763 S   0  0  0  0  0  0  0  0  0  0  0  0
   -5.7902   -4.6752   21.2061 O   0  0  0  0  0  0  0  0  0  0  0  0
   -3.5747   -3.8191   21.8723 O   0  0  0  0  0  0  0  0  0  0  0  0
   -3.9088   -7.0839   21.6220 C   0  0  0  0  0  0  0  0  0  0  0  0
   -2.2595   -8.2836   21.4539 C   0  0  0  0  0  0  0  0  0  0  0  0
   -1.5422   -8.8393   22.6903 C   0  0  0  0  0  0  0  0  0  0  0  0
   -2.4034  -10.0489   22.8315 C   0  0  0  0  0  0  0  0  0  0  0  0
   -3.3832   -9.6838   21.6927 C   0  0  0  0  0  0  0  0  0  0  0  0
   -2.5683   -9.6525   20.5580 N   0  0  0  0  0  0  0  0  0  0  0  0
   -3.0574   -9.7887   19.2135 C   0  0  0  0  0  0  0  0  0  0  0  0
   -3.4107   -8.9563   18.4348 O   0  0  0  0  0  0  0  0  0  0  0  0
   -3.3760  -11.3910   18.5602 C   0  0  0  0  0  0  0  0  0  0  0  0
   -5.1585  -11.7986   18.2102 O   0  0  0  0  0  0  0  0  0  0  0  0
   -6.2648  -13.0830   17.6780 C   0  0  0  0  0  0  0  0  0  0  0  0
   -7.6708  -12.4648   17.7820 C   0  0  0  0  0  0  0  0  0  0  0  0
   -8.9008  -13.0789   17.0412 C   0  0  0  0  0  0  0  0  0  0  0  0
   -9.1481  -14.5072   17.2182 N   0  0  0  0  0  0  0  0  0  0  0  0
   -7.8931  -15.2146   17.1263 C   0  0  0  0  0  0  0  0  0  0  0  0
   -6.9180  -14.6417   18.1676 C   0  0  0  0  0  0  0  0  0  0  0  0
   -5.2478   -3.9961   19.3482 H   0  0  0  0  0  0  0  0  0  0  0  0
   -3.6385   -3.5118   19.3232 H   0  0  0  0  0  0  0  0  0  0  0  0
   -3.7971   -6.7880   22.6719 H   0  0  0  0  0  0  0  0  0  0  0  0
   -4.8049   -7.5433   21.9388 H   0  0  0  0  0  0  0  0  0  0  0  0
   -1.4197   -7.9386   20.9038 H   0  0  0  0  0  0  0  0  0  0  0  0
   -0.5261   -9.1638   22.4243 H   0  0  0  0  0  0  0  0  0  0  0  0
   -1.4084   -8.1642   23.5313 H   0  0  0  0  0  0  0  0  0  0  0  0
   -2.8453  -10.1792   23.8163 H   0  0  0  0  0  0  0  0  0  0  0  0
   -1.8201  -10.9492   22.6107 H   0  0  0  0  0  0  0  0  0  0  0  0
   -4.0193   -8.9905   22.1457 H   0  0  0  0  0  0  0  0  0  0  0  0
   -4.0534  -10.4167   21.3310 H   0  0  0  0  0  0  0  0  0  0  0  0
   -2.8584  -11.5157   17.6093 H   0  0  0  0  0  0  0  0  0  0  0  0
   -3.1080  -12.0666   19.3729 H   0  0  0  0  0  0  0  0  0  0  0  0
   -5.8439  -13.3178   16.6996 H   0  0  0  0  0  0  0  0  0  0  0  0
   -7.5488  -11.4013   17.6447 H   0  0  0  0  0  0  0  0  0  0  0  0
   -7.9292  -12.5972   18.8131 H   0  0  0  0  0  0  0  0  0  0  0  0
   -8.8757  -12.8749   15.9749 H   0  0  0  0  0  0  0  0  0  0  0  0
   -9.8021  -12.5719   17.4046 H   0  0  0  0  0  0  0  0  0  0  0  0
   -9.5402  -14.6390   18.1525 H   0  0  0  0  0  0  0  0  0  0  0  0
   -7.4684  -15.1580   16.1175 H   0  0  0  0  0  0  0  0  0  0  0  0
   -8.0792  -16.2746   17.3348 H   0  0  0  0  0  0  0  0  0  0  0  0
   -6.2623  -15.5116   18.2963 H   0  0  0  0  0  0  0  0  0  0  0  0
   -7.4277  -14.5407   19.1366 H   0  0  0  0  0  0  0  0  0  0  0  0
  1  2  1  0
  2  3  2  0
  2  4  2  0
  2  5  1  0
  5  6  1  0
  6  7  1  0
  7  8  1  0
  8  9  1  0
  9 10  1  0
 10 11  1  0
 11 12  2  0
 11 13  1  0
 13 14  1  0
 14 15  1  0
 15 16  1  0
 16 17  1  0
 17 18  1  0
 18 19  1  0
 19 20  1  0
 10  6  1  0
 20 15  1  0
  1 21  1  0
  1 22  1  0
  5 23  1  0
  5 24  1  0
  6 25  1  0
  7 26  1  0
  7 27  1  0
  8 28  1  0
  8 29  1  0
  9 30  1  0
  9 31  1  0
 13 32  1  0
 13 33  1  0
 15 34  1  0
 16 35  1  0
 16 36  1  0
 17 37  1  0
 17 38  1  0
 18 39  1  0
 19 40  1  0
 19 41  1  0
 20 42  1  0
 20 43  1  0
M  END
>  <Energy>  (871) 
461.89665166629499

>  <compound_id>  (871) 
5896

>  <target_id>  (871) 
1

>  <reference_id>  (871) 
70

>  <inspiration_ids>  (871) 
[70, 9]

>  <energy_score>  (871) 
462.70671562281615

>  <distance_score>  (871) 
13.0281291250354

>  <path>  (871) 
/opt/xchem-fragalysis-2/maxwin/BulkDock/SCRATCH/511018/C5896-P70/C5896-P70.minimised.mol

>  <scratch_subdir>  (871) 
/opt/xchem-fragalysis-2/maxwin/BulkDock/SCRATCH/511018/C5896-P70

>  <fragmenstein_runtime>  (871) 
13.95489501953125

>  <fragmenstein_outcome>  (871) 
too moved

>  <fragmenstein_mode>  (871) 
expansion

>  <fragmenstein_error>  (871) 


$$$$
C5896-P9
     RDKit          3D

 43 44  0  0  0  0  0  0  0  0999 V2000
   -7.2810   -3.8420   12.8525 N   0  0  0  0  0  0  0  0  0  0  0  0
   -8.9040   -4.1959   12.7223 S   0  0  0  0  0  0  0  0  0  0  0  0
   -9.2251   -3.8848   11.3473 O   0  0  0  0  0  0  0  0  0  0  0  0
   -9.5654   -3.5209   13.8119 O   0  0  0  0  0  0  0  0  0  0  0  0
   -8.9878   -5.9968   12.9472 C   0  0  0  0  0  0  0  0  0  0  0  0
  -10.3940   -6.5233   12.5395 C   0  0  0  0  0  0  0  0  0  0  0  0
  -11.3794   -6.0770   13.6237 C   0  0  0  0  0  0  0  0  0  0  0  0
  -12.4076   -7.1302   13.4959 C   0  0  0  0  0  0  0  0  0  0  0  0
  -11.9494   -7.8018   12.2180 C   0  0  0  0  0  0  0  0  0  0  0  0
  -10.4679   -8.0901   12.1741 N   0  0  0  0  0  0  0  0  0  0  0  0
  -10.1592   -9.2667   12.9709 C   0  0  0  0  0  0  0  0  0  0  0  0
   -9.8566   -9.3643   14.1296 O   0  0  0  0  0  0  0  0  0  0  0  0
  -10.3313  -10.6377   12.1330 C   0  0  0  0  0  0  0  0  0  0  0  0
  -10.1898  -11.8668   12.8989 O   0  0  0  0  0  0  0  0  0  0  0  0
  -10.7246  -13.0719   12.3182 C   0  0  0  0  0  0  0  0  0  0  0  0
  -11.3256  -13.9361   13.4379 C   0  0  0  0  0  0  0  0  0  0  0  0
  -11.9305  -15.2302   12.8894 C   0  0  0  0  0  0  0  0  0  0  0  0
  -11.4171  -15.5574   11.5627 N   0  0  0  0  0  0  0  0  0  0  0  0
   -9.9743  -15.3869   11.5023 C   0  0  0  0  0  0  0  0  0  0  0  0
   -9.6283  -13.8936   11.6110 C   0  0  0  0  0  0  0  0  0  0  0  0
   -7.1354   -3.1071   13.5468 H   0  0  0  0  0  0  0  0  0  0  0  0
   -6.9006   -3.5871   11.9381 H   0  0  0  0  0  0  0  0  0  0  0  0
   -8.2347   -6.4340   12.2862 H   0  0  0  0  0  0  0  0  0  0  0  0
   -8.7756   -6.2269   13.9898 H   0  0  0  0  0  0  0  0  0  0  0  0
  -10.6296   -6.0181   11.5874 H   0  0  0  0  0  0  0  0  0  0  0  0
  -10.9738   -6.0208   14.6325 H   0  0  0  0  0  0  0  0  0  0  0  0
  -11.7887   -5.0886   13.3857 H   0  0  0  0  0  0  0  0  0  0  0  0
  -12.3897   -7.8383   14.3215 H   0  0  0  0  0  0  0  0  0  0  0  0
  -13.4237   -6.7339   13.4126 H   0  0  0  0  0  0  0  0  0  0  0  0
  -12.4776   -8.7605   12.1377 H   0  0  0  0  0  0  0  0  0  0  0  0
  -12.2504   -7.2529   11.3109 H   0  0  0  0  0  0  0  0  0  0  0  0
  -11.3263  -10.6198   11.6782 H   0  0  0  0  0  0  0  0  0  0  0  0
   -9.5705  -10.6414   11.3458 H   0  0  0  0  0  0  0  0  0  0  0  0
  -11.5207  -12.8121   11.6084 H   0  0  0  0  0  0  0  0  0  0  0  0
  -10.5409  -14.1693   14.1704 H   0  0  0  0  0  0  0  0  0  0  0  0
  -12.0831  -13.3650   13.9880 H   0  0  0  0  0  0  0  0  0  0  0  0
  -11.7317  -16.0413   13.5986 H   0  0  0  0  0  0  0  0  0  0  0  0
  -13.0182  -15.1196   12.8189 H   0  0  0  0  0  0  0  0  0  0  0  0
  -11.7129  -16.4778   11.2481 H   0  0  0  0  0  0  0  0  0  0  0  0
   -9.4806  -15.9581   12.2981 H   0  0  0  0  0  0  0  0  0  0  0  0
   -9.5913  -15.7752   10.5521 H   0  0  0  0  0  0  0  0  0  0  0  0
   -8.6679  -13.7762   12.1288 H   0  0  0  0  0  0  0  0  0  0  0  0
   -9.4801  -13.4699   10.6093 H   0  0  0  0  0  0  0  0  0  0  0  0
  1  2  1  0
  2  3  2  0
  2  4  2  0
  2  5  1  0
  5  6  1  0
  6  7  1  0
  7  8  1  0
  8  9  1  0
  9 10  1  0
 10 11  1  0
 11 12  2  0
 11 13  1  0
 13 14  1  0
 14 15  1  0
 15 16  1  0
 16 17  1  0
 17 18  1  0
 18 19  1  0
 19 20  1  0
 10  6  1  0
 20 15  1  0
  1 21  1  0
  1 22  1  0
  5 23  1  0
  5 24  1  0
  6 25  1  0
  7 26  1  0
  7 27  1  0
  8 28  1  0
  8 29  1  0
  9 30  1  0
  9 31  1  0
 13 32  1  0
 13 33  1  0
 15 34  1  0
 16 35  1  0
 16 36  1  0
 17 37  1  0
 17 38  1  0
 18 39  1  0
 19 40  1  0
 19 41  1  0
 20 42  1  0
 20 43  1  0
M  END
>  <Energy>  (872) 
13.268322828941146

>  <compound_id>  (872) 
5896

>  <target_id>  (872) 
1

>  <reference_id>  (872) 
9

>  <inspiration_ids>  (872) 
[70, 9]

>  <energy_score>  (872) 
14.078386785468979

>  <distance_score>  (872) 
15.658592032794092

>  <path>  (872) 
/opt/xchem-fragalysis-2/maxwin/BulkDock/SCRATCH/511018/C5896-P9/C5896-P9.minimised.mol

>  <scratch_subdir>  (872) 
/opt/xchem-fragalysis-2/maxwin/BulkDock/SCRATCH/511018/C5896-P9

>  <fragmenstein_runtime>  (872) 
15.679150342941284

>  <fragmenstein_outcome>  (872) 
too moved

>  <fragmenstein_mode>  (872) 
expansion

>  <fragmenstein_error>  (872) 


$$$$
C5898-P70
     RDKit          3D

 40 41  0  0  0  0  0  0  0  0999 V2000
   -0.8550   -8.2966   23.8007 N   0  0  0  0  0  0  0  0  0  0  0  0
    0.0371   -8.5744   22.6961 C   0  0  0  0  0  0  0  0  0  0  0  0
   -0.0657  -10.0353   22.0763 C   0  0  0  0  0  0  0  0  0  0  0  0
    1.2223  -10.3812   21.3670 C   0  0  0  0  0  0  0  0  0  0  0  0
    0.8860   -9.8335   20.0339 C   0  0  0  0  0  0  0  0  0  0  0  0
   -0.6080   -9.6675   20.1858 C   0  0  0  0  0  0  0  0  0  0  0  0
   -1.2829  -10.5093   21.2246 N   0  0  0  0  0  0  0  0  0  0  0  0
   -2.6804  -10.1670   21.3099 C   0  0  0  0  0  0  0  0  0  0  0  0
   -3.2422   -9.3638   22.0001 O   0  0  0  0  0  0  0  0  0  0  0  0
   -3.5564  -11.0393   20.1735 C   0  0  0  0  0  0  0  0  0  0  0  0
   -4.8524  -11.6178   19.9305 O   0  0  0  0  0  0  0  0  0  0  0  0
   -6.4920  -12.0955   20.4856 C   0  0  0  0  0  0  0  0  0  0  0  0
   -7.3319  -13.0866   19.1523 C   0  0  0  0  0  0  0  0  0  0  0  0
   -8.4576  -14.0451   19.6276 C   0  0  0  0  0  0  0  0  0  0  0  0
   -8.3226  -14.6068   20.9795 N   0  0  0  0  0  0  0  0  0  0  0  0
   -8.3068  -13.5464   22.0148 C   0  0  0  0  0  0  0  0  0  0  0  0
   -7.0912  -12.5024   22.0547 C   0  0  0  0  0  0  0  0  0  0  0  0
   -0.8754   -7.3100   24.0383 H   0  0  0  0  0  0  0  0  0  0  0  0
   -1.8392   -8.4897   23.5310 H   0  0  0  0  0  0  0  0  0  0  0  0
   -0.0433   -7.8270   21.9155 H   0  0  0  0  0  0  0  0  0  0  0  0
    1.0495   -8.4557   23.1018 H   0  0  0  0  0  0  0  0  0  0  0  0
   -0.1311  -10.6971   22.9528 H   0  0  0  0  0  0  0  0  0  0  0  0
    2.1267   -9.9501   21.8043 H   0  0  0  0  0  0  0  0  0  0  0  0
    1.3540  -11.4685   21.3140 H   0  0  0  0  0  0  0  0  0  0  0  0
    1.1487  -10.5353   19.2357 H   0  0  0  0  0  0  0  0  0  0  0  0
    1.3720   -8.8758   19.8221 H   0  0  0  0  0  0  0  0  0  0  0  0
   -1.0659   -9.9532   19.2279 H   0  0  0  0  0  0  0  0  0  0  0  0
   -0.9126   -8.6281   20.2902 H   0  0  0  0  0  0  0  0  0  0  0  0
   -3.3811  -10.4138   19.2891 H   0  0  0  0  0  0  0  0  0  0  0  0
   -2.8681  -11.8652   19.9349 H   0  0  0  0  0  0  0  0  0  0  0  0
   -6.8379  -11.2177   20.1319 H   0  0  0  0  0  0  0  0  0  0  0  0
   -6.6361  -13.6139   18.5060 H   0  0  0  0  0  0  0  0  0  0  0  0
   -7.7438  -12.3588   18.4343 H   0  0  0  0  0  0  0  0  0  0  0  0
   -9.4344  -13.5587   19.5312 H   0  0  0  0  0  0  0  0  0  0  0  0
   -8.4916  -14.8841   18.9219 H   0  0  0  0  0  0  0  0  0  0  0  0
   -9.1303  -15.2050   21.1489 H   0  0  0  0  0  0  0  0  0  0  0  0
   -9.2611  -13.0067   21.9967 H   0  0  0  0  0  0  0  0  0  0  0  0
   -8.2975  -14.0536   22.9882 H   0  0  0  0  0  0  0  0  0  0  0  0
   -7.4472  -11.6168   22.5923 H   0  0  0  0  0  0  0  0  0  0  0  0
   -6.3155  -12.8764   22.7328 H   0  0  0  0  0  0  0  0  0  0  0  0
  1  2  1  0
  2  3  1  0
  3  4  1  0
  4  5  1  0
  5  6  1  0
  6  7  1  0
  7  8  1  0
  8  9  2  0
  8 10  1  0
 10 11  1  0
 11 12  1  0
 12 13  1  0
 13 14  1  0
 14 15  1  0
 15 16  1  0
 16 17  1  0
  7  3  1  0
 17 12  1  0
  1 18  1  0
  1 19  1  0
  2 20  1  0
  2 21  1  0
  3 22  1  0
  4 23  1  0
  4 24  1  0
  5 25  1  0
  5 26  1  0
  6 27  1  0
  6 28  1  0
 10 29  1  0
 10 30  1  0
 12 31  1  0
 13 32  1  0
 13 33  1  0
 14 34  1  0
 14 35  1  0
 15 36  1  0
 16 37  1  0
 16 38  1  0
 17 39  1  0
 17 40  1  0
M  END
>  <Energy>  (873) 
275.9670786830489

>  <compound_id>  (873) 
5898

>  <target_id>  (873) 
1

>  <reference_id>  (873) 
70

>  <inspiration_ids>  (873) 
[70, 9]

>  <energy_score>  (873) 
191.3872931060065

>  <distance_score>  (873) 
14.421200318678572

>  <path>  (873) 
/opt/xchem-fragalysis-2/maxwin/BulkDock/SCRATCH/511018/C5898-P70/C5898-P70.minimised.mol

>  <scratch_subdir>  (873) 
/opt/xchem-fragalysis-2/maxwin/BulkDock/SCRATCH/511018/C5898-P70

>  <fragmenstein_runtime>  (873) 
12.750635862350464

>  <fragmenstein_outcome>  (873) 
too moved

>  <fragmenstein_mode>  (873) 
expansion

>  <fragmenstein_error>  (873) 


$$$$
C5898-P9
     RDKit          3D

 40 41  0  0  0  0  0  0  0  0999 V2000
   -5.3780   -6.7273   22.8134 N   0  0  0  0  0  0  0  0  0  0  0  0
   -6.9657   -6.2174   22.0891 C   0  0  0  0  0  0  0  0  0  0  0  0
   -7.2094   -6.5381   20.6336 C   0  0  0  0  0  0  0  0  0  0  0  0
   -5.2320   -5.7851   20.7375 C   0  0  0  0  0  0  0  0  0  0  0  0
   -4.2617   -7.7766   20.5960 C   0  0  0  0  0  0  0  0  0  0  0  0
   -5.7162   -8.0520   18.7535 C   0  0  0  0  0  0  0  0  0  0  0  0
   -7.3279   -8.5610   19.9210 N   0  0  0  0  0  0  0  0  0  0  0  0
   -8.1139   -9.1730   19.2121 C   0  0  0  0  0  0  0  0  0  0  0  0
   -8.7964   -8.5299   18.8166 O   0  0  0  0  0  0  0  0  0  0  0  0
   -7.8137  -11.1897   18.8692 C   0  0  0  0  0  0  0  0  0  0  0  0
   -8.7563  -12.4173   18.3454 O   0  0  0  0  0  0  0  0  0  0  0  0
   -8.5811  -13.8065   18.7084 C   0  0  0  0  0  0  0  0  0  0  0  0
   -9.9591  -14.4949   18.5227 C   0  0  0  0  0  0  0  0  0  0  0  0
   -9.9207  -16.0117   18.7253 C   0  0  0  0  0  0  0  0  0  0  0  0
   -8.9582  -16.6608   17.8398 N   0  0  0  0  0  0  0  0  0  0  0  0
   -7.6248  -16.0844   18.0184 C   0  0  0  0  0  0  0  0  0  0  0  0
   -7.5993  -14.5625   17.8000 C   0  0  0  0  0  0  0  0  0  0  0  0
   -5.7982   -6.9230   23.7304 H   0  0  0  0  0  0  0  0  0  0  0  0
   -5.0812   -7.6358   22.6044 H   0  0  0  0  0  0  0  0  0  0  0  0
   -6.8207   -5.1268   21.9955 H   0  0  0  0  0  0  0  0  0  0  0  0
   -7.8381   -6.6276   22.4906 H   0  0  0  0  0  0  0  0  0  0  0  0
   -8.2428   -6.3771   20.2794 H   0  0  0  0  0  0  0  0  0  0  0  0
   -4.8170   -5.2028   21.5521 H   0  0  0  0  0  0  0  0  0  0  0  0
   -5.1617   -4.9962   19.9519 H   0  0  0  0  0  0  0  0  0  0  0  0
   -3.1983   -7.9239   20.1387 H   0  0  0  0  0  0  0  0  0  0  0  0
   -4.0153   -8.0640   21.6520 H   0  0  0  0  0  0  0  0  0  0  0  0
   -6.2223   -7.2031   18.1038 H   0  0  0  0  0  0  0  0  0  0  0  0
   -5.4757   -8.5663   17.8407 H   0  0  0  0  0  0  0  0  0  0  0  0
   -7.1355  -11.8385   19.4269 H   0  0  0  0  0  0  0  0  0  0  0  0
   -7.2076  -11.1480   17.9354 H   0  0  0  0  0  0  0  0  0  0  0  0
   -8.2845  -13.8840   19.7569 H   0  0  0  0  0  0  0  0  0  0  0  0
  -10.6779  -14.0529   19.2225 H   0  0  0  0  0  0  0  0  0  0  0  0
  -10.3473  -14.2640   17.5210 H   0  0  0  0  0  0  0  0  0  0  0  0
   -9.6816  -16.2407   19.7710 H   0  0  0  0  0  0  0  0  0  0  0  0
  -10.9161  -16.4242   18.5278 H   0  0  0  0  0  0  0  0  0  0  0  0
   -8.9256  -17.6595   18.0356 H   0  0  0  0  0  0  0  0  0  0  0  0
   -6.9423  -16.5552   17.3022 H   0  0  0  0  0  0  0  0  0  0  0  0
   -7.2484  -16.3235   19.0200 H   0  0  0  0  0  0  0  0  0  0  0  0
   -7.8458  -14.3540   16.7530 H   0  0  0  0  0  0  0  0  0  0  0  0
   -6.5850  -14.1799   17.9607 H   0  0  0  0  0  0  0  0  0  0  0  0
  1  2  1  0
  2  3  1  0
  3  4  1  0
  4  5  1  0
  5  6  1  0
  6  7  1  0
  7  8  1  0
  8  9  2  0
  8 10  1  0
 10 11  1  0
 11 12  1  0
 12 13  1  0
 13 14  1  0
 14 15  1  0
 15 16  1  0
 16 17  1  0
  7  3  1  0
 17 12  1  0
  1 18  1  0
  1 19  1  0
  2 20  1  0
  2 21  1  0
  3 22  1  0
  4 23  1  0
  4 24  1  0
  5 25  1  0
  5 26  1  0
  6 27  1  0
  6 28  1  0
 10 29  1  0
 10 30  1  0
 12 31  1  0
 13 32  1  0
 13 33  1  0
 14 34  1  0
 14 35  1  0
 15 36  1  0
 16 37  1  0
 16 38  1  0
 17 39  1  0
 17 40  1  0
M  END
>  <Energy>  (874) 
1093.6105075383759

>  <compound_id>  (874) 
5898

>  <target_id>  (874) 
1

>  <reference_id>  (874) 
9

>  <inspiration_ids>  (874) 
[70, 9]

>  <energy_score>  (874) 
1009.030721961341

>  <distance_score>  (874) 
12.404911749571927

>  <path>  (874) 
/opt/xchem-fragalysis-2/maxwin/BulkDock/SCRATCH/511018/C5898-P9/C5898-P9.minimised.mol

>  <scratch_subdir>  (874) 
/opt/xchem-fragalysis-2/maxwin/BulkDock/SCRATCH/511018/C5898-P9

>  <fragmenstein_runtime>  (874) 
11.395549297332764

>  <fragmenstein_outcome>  (874) 
too moved

>  <fragmenstein_mode>  (874) 
expansion

>  <fragmenstein_error>  (874) 


$$$$
C5899-P70
     RDKit          3D

 46 47  0  0  0  0  0  0  0  0999 V2000
   -4.2324   -2.2835   21.0957 C   0  0  0  0  0  0  0  0  0  0  0  0
   -4.0755   -2.4884   19.6722 N   0  0  0  0  0  0  0  0  0  0  0  0
   -4.3626   -4.0440   19.5355 S   0  0  0  0  0  0  0  0  0  0  0  0
   -4.2795   -4.5204   18.1699 O   0  0  0  0  0  0  0  0  0  0  0  0
   -3.7222   -4.5742   20.7142 O   0  0  0  0  0  0  0  0  0  0  0  0
   -5.9868   -4.1257   19.6910 C   0  0  0  0  0  0  0  0  0  0  0  0
   -7.3623   -4.9696   20.1314 C   0  0  0  0  0  0  0  0  0  0  0  0
   -6.5858   -4.7320   21.4450 C   0  0  0  0  0  0  0  0  0  0  0  0
   -6.9278   -5.9722   22.0606 C   0  0  0  0  0  0  0  0  0  0  0  0
   -7.6241   -6.7198   21.0620 C   0  0  0  0  0  0  0  0  0  0  0  0
   -8.3363   -6.5598   19.8568 N   0  0  0  0  0  0  0  0  0  0  0  0
   -8.0575   -7.8851   18.7376 C   0  0  0  0  0  0  0  0  0  0  0  0
   -7.1558   -7.7782   17.9281 O   0  0  0  0  0  0  0  0  0  0  0  0
   -8.6800   -9.4703   18.6811 C   0  0  0  0  0  0  0  0  0  0  0  0
   -7.8985  -11.1648   18.4167 O   0  0  0  0  0  0  0  0  0  0  0  0
   -8.9004  -12.5001   18.1943 C   0  0  0  0  0  0  0  0  0  0  0  0
   -8.6722  -13.7509   19.1249 C   0  0  0  0  0  0  0  0  0  0  0  0
   -9.7388  -14.8560   18.9330 C   0  0  0  0  0  0  0  0  0  0  0  0
  -10.3541  -14.9116   17.6131 N   0  0  0  0  0  0  0  0  0  0  0  0
   -9.3974  -14.5599   16.5847 C   0  0  0  0  0  0  0  0  0  0  0  0
   -8.7230  -13.1862   16.8103 C   0  0  0  0  0  0  0  0  0  0  0  0
   -3.5285   -2.8162   21.7507 H   0  0  0  0  0  0  0  0  0  0  0  0
   -5.2607   -2.4835   21.3796 H   0  0  0  0  0  0  0  0  0  0  0  0
   -4.0198   -1.2421   21.3044 H   0  0  0  0  0  0  0  0  0  0  0  0
   -3.2408   -2.5005   19.0284 H   0  0  0  0  0  0  0  0  0  0  0  0
   -5.5518   -5.0434   19.9499 H   0  0  0  0  0  0  0  0  0  0  0  0
   -6.0062   -4.0761   18.6114 H   0  0  0  0  0  0  0  0  0  0  0  0
   -6.9439   -5.6125   19.3467 H   0  0  0  0  0  0  0  0  0  0  0  0
   -5.5178   -4.7784   21.5547 H   0  0  0  0  0  0  0  0  0  0  0  0
   -6.7632   -3.7227   21.8318 H   0  0  0  0  0  0  0  0  0  0  0  0
   -7.4805   -5.9162   22.9589 H   0  0  0  0  0  0  0  0  0  0  0  0
   -5.9674   -6.4482   22.4323 H   0  0  0  0  0  0  0  0  0  0  0  0
   -8.4239   -6.9414   21.7167 H   0  0  0  0  0  0  0  0  0  0  0  0
   -7.3278   -7.6667   21.2092 H   0  0  0  0  0  0  0  0  0  0  0  0
   -9.6841   -9.8577   18.6555 H   0  0  0  0  0  0  0  0  0  0  0  0
   -8.1278   -9.3260   17.7706 H   0  0  0  0  0  0  0  0  0  0  0  0
   -9.9187  -12.1273   18.2608 H   0  0  0  0  0  0  0  0  0  0  0  0
   -7.6798  -14.1632   18.9020 H   0  0  0  0  0  0  0  0  0  0  0  0
   -8.6537  -13.5550   20.1963 H   0  0  0  0  0  0  0  0  0  0  0  0
  -10.5409  -14.7037   19.6644 H   0  0  0  0  0  0  0  0  0  0  0  0
   -9.2808  -15.8240   19.1712 H   0  0  0  0  0  0  0  0  0  0  0  0
  -10.7322  -15.8425   17.4442 H   0  0  0  0  0  0  0  0  0  0  0  0
   -9.9019  -14.5501   15.6116 H   0  0  0  0  0  0  0  0  0  0  0  0
   -8.6266  -15.3388   16.5139 H   0  0  0  0  0  0  0  0  0  0  0  0
   -9.0538  -12.5098   16.0259 H   0  0  0  0  0  0  0  0  0  0  0  0
   -7.6591  -13.3957   16.7006 H   0  0  0  0  0  0  0  0  0  0  0  0
  1  2  1  0
  2  3  1  0
  3  4  2  0
  3  5  2  0
  3  6  1  0
  6  7  1  0
  7  8  1  0
  8  9  1  0
  9 10  1  0
 10 11  1  0
 11 12  1  0
 12 13  2  0
 12 14  1  0
 14 15  1  0
 15 16  1  0
 16 17  1  0
 17 18  1  0
 18 19  1  0
 19 20  1  0
 20 21  1  0
 11  7  1  0
 21 16  1  0
  1 22  1  0
  1 23  1  0
  1 24  1  0
  2 25  1  0
  6 26  1  0
  6 27  1  0
  7 28  1  0
  8 29  1  0
  8 30  1  0
  9 31  1  0
  9 32  1  0
 10 33  1  0
 10 34  1  0
 14 35  1  0
 14 36  1  0
 16 37  1  0
 17 38  1  0
 17 39  1  0
 18 40  1  0
 18 41  1  0
 19 42  1  0
 20 43  1  0
 20 44  1  0
 21 45  1  0
 21 46  1  0
M  END
>  <Energy>  (875) 
642.94725863847225

>  <compound_id>  (875) 
5899

>  <target_id>  (875) 
1

>  <reference_id>  (875) 
70

>  <inspiration_ids>  (875) 
[70, 9]

>  <energy_score>  (875) 
611.1684530425821

>  <distance_score>  (875) 
12.354976885834398

>  <path>  (875) 
/opt/xchem-fragalysis-2/maxwin/BulkDock/SCRATCH/511018/C5899-P70/C5899-P70.minimised.mol

>  <scratch_subdir>  (875) 
/opt/xchem-fragalysis-2/maxwin/BulkDock/SCRATCH/511018/C5899-P70

>  <fragmenstein_runtime>  (875) 
21.335057020187378

>  <fragmenstein_outcome>  (875) 
too moved

>  <fragmenstein_mode>  (875) 
expansion

>  <fragmenstein_error>  (875) 


$$$$
C5899-P9
     RDKit          3D

 46 47  0  0  0  0  0  0  0  0999 V2000
   -2.6881    1.3238   22.2756 C   0  0  0  0  0  0  0  0  0  0  0  0
   -3.8118   -0.2313   21.5424 N   0  0  0  0  0  0  0  0  0  0  0  0
   -4.2780   -2.3245   21.0495 S   0  0  0  0  0  0  0  0  0  0  0  0
   -3.2970   -3.0132   21.8552 O   0  0  0  0  0  0  0  0  0  0  0  0
   -4.1797   -2.2803   19.6083 O   0  0  0  0  0  0  0  0  0  0  0  0
   -6.3808   -3.0194   21.2427 C   0  0  0  0  0  0  0  0  0  0  0  0
   -6.7210   -4.7456   21.0070 C   0  0  0  0  0  0  0  0  0  0  0  0
   -5.4653   -4.8888   20.3758 C   0  0  0  0  0  0  0  0  0  0  0  0
   -5.0446   -5.5240   21.5375 C   0  0  0  0  0  0  0  0  0  0  0  0
   -6.6822   -6.3499   22.0731 C   0  0  0  0  0  0  0  0  0  0  0  0
   -7.8347   -6.5051   20.8450 N   0  0  0  0  0  0  0  0  0  0  0  0
   -8.0433   -7.8056   19.3690 C   0  0  0  0  0  0  0  0  0  0  0  0
   -7.4800   -7.4941   18.2743 O   0  0  0  0  0  0  0  0  0  0  0  0
   -8.6811   -9.5092   19.2300 C   0  0  0  0  0  0  0  0  0  0  0  0
   -7.8230  -11.1562   18.8795 O   0  0  0  0  0  0  0  0  0  0  0  0
   -8.6256  -12.6412   18.6549 C   0  0  0  0  0  0  0  0  0  0  0  0
   -9.7315  -12.9666   17.6056 C   0  0  0  0  0  0  0  0  0  0  0  0
  -10.2855  -14.4054   17.7715 C   0  0  0  0  0  0  0  0  0  0  0  0
   -9.2567  -15.4433   17.7008 N   0  0  0  0  0  0  0  0  0  0  0  0
   -8.1774  -15.1632   18.6523 C   0  0  0  0  0  0  0  0  0  0  0  0
   -7.5807  -13.7621   18.4335 C   0  0  0  0  0  0  0  0  0  0  0  0
   -2.5670    1.7275   23.3116 H   0  0  0  0  0  0  0  0  0  0  0  0
   -3.3521    2.2117   21.9953 H   0  0  0  0  0  0  0  0  0  0  0  0
   -1.7831    1.6127   21.7729 H   0  0  0  0  0  0  0  0  0  0  0  0
   -4.4862    0.3571   21.0651 H   0  0  0  0  0  0  0  0  0  0  0  0
   -7.1291   -2.3998   20.7743 H   0  0  0  0  0  0  0  0  0  0  0  0
   -6.3847   -2.9962   22.2997 H   0  0  0  0  0  0  0  0  0  0  0  0
   -6.8163   -4.5599   22.0497 H   0  0  0  0  0  0  0  0  0  0  0  0
   -4.8567   -4.2505   19.7718 H   0  0  0  0  0  0  0  0  0  0  0  0
   -5.9321   -5.4953   19.7242 H   0  0  0  0  0  0  0  0  0  0  0  0
   -4.3105   -6.3137   21.6554 H   0  0  0  0  0  0  0  0  0  0  0  0
   -4.5379   -4.6762   21.9291 H   0  0  0  0  0  0  0  0  0  0  0  0
   -7.3784   -6.0366   22.8344 H   0  0  0  0  0  0  0  0  0  0  0  0
   -5.7934   -6.8630   22.6072 H   0  0  0  0  0  0  0  0  0  0  0  0
   -8.2238   -9.2927   18.2847 H   0  0  0  0  0  0  0  0  0  0  0  0
   -9.6546   -9.9324   19.0663 H   0  0  0  0  0  0  0  0  0  0  0  0
   -9.1347  -12.8879   19.5835 H   0  0  0  0  0  0  0  0  0  0  0  0
   -9.3310  -12.8781   16.5906 H   0  0  0  0  0  0  0  0  0  0  0  0
  -10.5812  -12.2873   17.7219 H   0  0  0  0  0  0  0  0  0  0  0  0
  -10.8190  -14.4814   18.7273 H   0  0  0  0  0  0  0  0  0  0  0  0
  -11.0229  -14.5901   16.9824 H   0  0  0  0  0  0  0  0  0  0  0  0
   -9.6672  -16.3511   17.9080 H   0  0  0  0  0  0  0  0  0  0  0  0
   -8.5455  -15.2652   19.6801 H   0  0  0  0  0  0  0  0  0  0  0  0
   -7.3901  -15.9124   18.5143 H   0  0  0  0  0  0  0  0  0  0  0  0
   -6.7071  -13.5684   19.0403 H   0  0  0  0  0  0  0  0  0  0  0  0
   -7.2105  -13.7645   17.4133 H   0  0  0  0  0  0  0  0  0  0  0  0
  1  2  1  0
  2  3  1  0
  3  4  2  0
  3  5  2  0
  3  6  1  0
  6  7  1  0
  7  8  1  0
  8  9  1  0
  9 10  1  0
 10 11  1  0
 11 12  1  0
 12 13  2  0
 12 14  1  0
 14 15  1  0
 15 16  1  0
 16 17  1  0
 17 18  1  0
 18 19  1  0
 19 20  1  0
 20 21  1  0
 11  7  1  0
 21 16  1  0
  1 22  1  0
  1 23  1  0
  1 24  1  0
  2 25  1  0
  6 26  1  0
  6 27  1  0
  7 28  1  0
  8 29  1  0
  8 30  1  0
  9 31  1  0
  9 32  1  0
 10 33  1  0
 10 34  1  0
 14 35  1  0
 14 36  1  0
 16 37  1  0
 17 38  1  0
 17 39  1  0
 18 40  1  0
 18 41  1  0
 19 42  1  0
 20 43  1  0
 20 44  1  0
 21 45  1  0
 21 46  1  0
M  END
>  <Energy>  (876) 
1072.1793246200505

>  <compound_id>  (876) 
5899

>  <target_id>  (876) 
1

>  <reference_id>  (876) 
9

>  <inspiration_ids>  (876) 
[70, 9]

>  <energy_score>  (876) 
1040.4005190241717

>  <distance_score>  (876) 
11.877380371489789

>  <path>  (876) 
/opt/xchem-fragalysis-2/maxwin/BulkDock/SCRATCH/511018/C5899-P9/C5899-P9.minimised.mol

>  <scratch_subdir>  (876) 
/opt/xchem-fragalysis-2/maxwin/BulkDock/SCRATCH/511018/C5899-P9

>  <fragmenstein_runtime>  (876) 
14.110237121582031

>  <fragmenstein_outcome>  (876) 
too moved

>  <fragmenstein_mode>  (876) 
expansion

>  <fragmenstein_error>  (876) 


$$$$
C5901-P70
     RDKit          3D

 38 39  0  0  0  0  0  0  0  0999 V2000
   -3.2676  -10.3244   17.7075 O   0  0  0  0  0  0  0  0  0  0  0  0
   -2.9889  -11.3041   18.3699 C   0  0  0  0  0  0  0  0  0  0  0  0
   -2.1143  -12.2012   17.8259 O   0  0  0  0  0  0  0  0  0  0  0  0
   -3.4119  -11.6941   19.8952 C   0  0  0  0  0  0  0  0  0  0  0  0
   -2.1852  -10.8810   20.3583 C   0  0  0  0  0  0  0  0  0  0  0  0
   -2.6252   -9.5590   20.7651 C   0  0  0  0  0  0  0  0  0  0  0  0
   -3.8385  -10.0049   21.5257 C   0  0  0  0  0  0  0  0  0  0  0  0
   -4.9766  -11.2397   20.6883 N   0  0  0  0  0  0  0  0  0  0  0  0
   -6.0780  -12.1896   22.0301 C   0  0  0  0  0  0  0  0  0  0  0  0
   -5.7556  -13.2771   22.6137 O   0  0  0  0  0  0  0  0  0  0  0  0
   -7.5427  -11.8031   22.4512 C   0  0  0  0  0  0  0  0  0  0  0  0
   -8.6536  -12.8999   22.4025 O   0  0  0  0  0  0  0  0  0  0  0  0
   -8.6843  -13.9985   21.4277 C   0  0  0  0  0  0  0  0  0  0  0  0
   -8.3559  -15.3618   22.0788 C   0  0  0  0  0  0  0  0  0  0  0  0
   -8.4658  -16.5298   21.0840 C   0  0  0  0  0  0  0  0  0  0  0  0
   -9.7982  -16.6313   20.4906 N   0  0  0  0  0  0  0  0  0  0  0  0
  -10.1762  -15.3683   19.8568 C   0  0  0  0  0  0  0  0  0  0  0  0
  -10.0992  -14.1751   20.8263 C   0  0  0  0  0  0  0  0  0  0  0  0
   -1.8395  -11.7622   16.9905 H   0  0  0  0  0  0  0  0  0  0  0  0
   -3.0607  -12.6978   19.9923 H   0  0  0  0  0  0  0  0  0  0  0  0
   -1.5178  -10.6862   19.5574 H   0  0  0  0  0  0  0  0  0  0  0  0
   -1.5012  -11.4578   20.9562 H   0  0  0  0  0  0  0  0  0  0  0  0
   -1.8966   -9.0400   21.3958 H   0  0  0  0  0  0  0  0  0  0  0  0
   -2.8212   -8.9137   19.9043 H   0  0  0  0  0  0  0  0  0  0  0  0
   -3.4588  -10.3601   22.4730 H   0  0  0  0  0  0  0  0  0  0  0  0
   -4.2215   -9.0904   21.9835 H   0  0  0  0  0  0  0  0  0  0  0  0
   -7.9606  -10.8383   22.7048 H   0  0  0  0  0  0  0  0  0  0  0  0
   -7.3443  -11.9503   23.5353 H   0  0  0  0  0  0  0  0  0  0  0  0
   -8.0239  -13.7894   20.5878 H   0  0  0  0  0  0  0  0  0  0  0  0
   -7.3564  -15.3484   22.5238 H   0  0  0  0  0  0  0  0  0  0  0  0
   -9.0363  -15.5294   22.9250 H   0  0  0  0  0  0  0  0  0  0  0  0
   -8.2444  -17.4652   21.6094 H   0  0  0  0  0  0  0  0  0  0  0  0
   -7.7110  -16.4189   20.2961 H   0  0  0  0  0  0  0  0  0  0  0  0
   -9.8046  -17.3757   19.7933 H   0  0  0  0  0  0  0  0  0  0  0  0
   -9.5359  -15.1797   18.9861 H   0  0  0  0  0  0  0  0  0  0  0  0
  -11.2028  -15.4564   19.4848 H   0  0  0  0  0  0  0  0  0  0  0  0
  -10.3927  -13.2623   20.2989 H   0  0  0  0  0  0  0  0  0  0  0  0
  -10.8316  -14.2951   21.6356 H   0  0  0  0  0  0  0  0  0  0  0  0
  1  2  2  0
  2  3  1  0
  2  4  1  0
  4  5  1  0
  5  6  1  0
  6  7  1  0
  7  8  1  0
  8  9  1  0
  9 10  2  0
  9 11  1  0
 11 12  1  0
 12 13  1  0
 13 14  1  0
 14 15  1  0
 15 16  1  0
 16 17  1  0
 17 18  1  0
  8  4  1  0
 18 13  1  0
  3 19  1  0
  4 20  1  0
  5 21  1  0
  5 22  1  0
  6 23  1  0
  6 24  1  0
  7 25  1  0
  7 26  1  0
 11 27  1  0
 11 28  1  0
 13 29  1  0
 14 30  1  0
 14 31  1  0
 15 32  1  0
 15 33  1  0
 16 34  1  0
 17 35  1  0
 17 36  1  0
 18 37  1  0
 18 38  1  0
M  END
>  <Energy>  (877) 
367.11981768115589

>  <compound_id>  (877) 
5901

>  <target_id>  (877) 
1

>  <reference_id>  (877) 
70

>  <inspiration_ids>  (877) 
[70, 9]

>  <energy_score>  (877) 
258.6259663512712

>  <distance_score>  (877) 
14.2805906182521

>  <path>  (877) 
/opt/xchem-fragalysis-2/maxwin/BulkDock/SCRATCH/511018/C5901-P70/C5901-P70.minimised.mol

>  <scratch_subdir>  (877) 
/opt/xchem-fragalysis-2/maxwin/BulkDock/SCRATCH/511018/C5901-P70

>  <fragmenstein_runtime>  (877) 
13.903346538543701

>  <fragmenstein_outcome>  (877) 
too moved

>  <fragmenstein_mode>  (877) 
expansion

>  <fragmenstein_error>  (877) 


$$$$
C5901-P9
     RDKit          3D

 38 39  0  0  0  0  0  0  0  0999 V2000
   -7.7873   -1.8429   20.0915 O   0  0  0  0  0  0  0  0  0  0  0  0
   -7.7048   -2.3855   21.1682 C   0  0  0  0  0  0  0  0  0  0  0  0
   -8.6620   -1.8249   22.0876 O   0  0  0  0  0  0  0  0  0  0  0  0
   -6.6376   -3.8141   21.7156 C   0  0  0  0  0  0  0  0  0  0  0  0
   -5.1253   -3.3310   21.3505 C   0  0  0  0  0  0  0  0  0  0  0  0
   -4.7667   -4.0974   20.1451 C   0  0  0  0  0  0  0  0  0  0  0  0
   -5.8491   -4.9895   20.1495 C   0  0  0  0  0  0  0  0  0  0  0  0
   -6.7107   -5.6075   21.0744 N   0  0  0  0  0  0  0  0  0  0  0  0
   -8.1181   -6.5726   20.2285 C   0  0  0  0  0  0  0  0  0  0  0  0
   -9.2026   -6.0251   19.9723 O   0  0  0  0  0  0  0  0  0  0  0  0
   -8.0991   -8.4267   19.4299 C   0  0  0  0  0  0  0  0  0  0  0  0
   -8.1896  -10.1282   19.1784 O   0  0  0  0  0  0  0  0  0  0  0  0
   -7.7035  -11.7226   18.4764 C   0  0  0  0  0  0  0  0  0  0  0  0
   -6.7434  -12.8585   18.8561 C   0  0  0  0  0  0  0  0  0  0  0  0
   -6.8976  -14.2504   18.1402 C   0  0  0  0  0  0  0  0  0  0  0  0
   -8.1561  -14.9587   18.3505 N   0  0  0  0  0  0  0  0  0  0  0  0
   -9.1584  -14.0641   18.9053 C   0  0  0  0  0  0  0  0  0  0  0  0
   -9.1060  -12.6686   18.2666 C   0  0  0  0  0  0  0  0  0  0  0  0
   -8.7417   -2.2239   22.9761 H   0  0  0  0  0  0  0  0  0  0  0  0
   -6.9443   -3.7869   22.7608 H   0  0  0  0  0  0  0  0  0  0  0  0
   -4.3024   -3.5567   22.0274 H   0  0  0  0  0  0  0  0  0  0  0  0
   -5.0233   -2.3196   21.0540 H   0  0  0  0  0  0  0  0  0  0  0  0
   -4.6315   -3.5344   19.2290 H   0  0  0  0  0  0  0  0  0  0  0  0
   -3.9280   -4.7815   20.1692 H   0  0  0  0  0  0  0  0  0  0  0  0
   -6.3355   -4.0630   19.8689 H   0  0  0  0  0  0  0  0  0  0  0  0
   -5.2095   -5.3962   20.9486 H   0  0  0  0  0  0  0  0  0  0  0  0
   -9.1564   -8.3521   19.5903 H   0  0  0  0  0  0  0  0  0  0  0  0
   -7.8903   -8.1445   18.3937 H   0  0  0  0  0  0  0  0  0  0  0  0
   -7.2941  -11.3210   17.5613 H   0  0  0  0  0  0  0  0  0  0  0  0
   -5.6929  -12.5836   18.7249 H   0  0  0  0  0  0  0  0  0  0  0  0
   -6.9900  -13.0229   19.8853 H   0  0  0  0  0  0  0  0  0  0  0  0
   -6.0813  -14.9032   18.4707 H   0  0  0  0  0  0  0  0  0  0  0  0
   -6.7504  -14.1759   17.0653 H   0  0  0  0  0  0  0  0  0  0  0  0
   -8.0159  -15.7342   18.9957 H   0  0  0  0  0  0  0  0  0  0  0  0
   -9.0515  -13.9946   19.9933 H   0  0  0  0  0  0  0  0  0  0  0  0
  -10.1458  -14.5029   18.7223 H   0  0  0  0  0  0  0  0  0  0  0  0
   -9.9907  -12.1326   18.6269 H   0  0  0  0  0  0  0  0  0  0  0  0
   -9.2207  -12.8253   17.1851 H   0  0  0  0  0  0  0  0  0  0  0  0
  1  2  2  0
  2  3  1  0
  2  4  1  0
  4  5  1  0
  5  6  1  0
  6  7  1  0
  7  8  1  0
  8  9  1  0
  9 10  2  0
  9 11  1  0
 11 12  1  0
 12 13  1  0
 13 14  1  0
 14 15  1  0
 15 16  1  0
 16 17  1  0
 17 18  1  0
  8  4  1  0
 18 13  1  0
  3 19  1  0
  4 20  1  0
  5 21  1  0
  5 22  1  0
  6 23  1  0
  6 24  1  0
  7 25  1  0
  7 26  1  0
 11 27  1  0
 11 28  1  0
 13 29  1  0
 14 30  1  0
 14 31  1  0
 15 32  1  0
 15 33  1  0
 16 34  1  0
 17 35  1  0
 17 36  1  0
 18 37  1  0
 18 38  1  0
M  END
>  <Energy>  (878) 
675.46919287599803

>  <compound_id>  (878) 
5901

>  <target_id>  (878) 
1

>  <reference_id>  (878) 
9

>  <inspiration_ids>  (878) 
[70, 9]

>  <energy_score>  (878) 
566.97534154611

>  <distance_score>  (878) 
12.326379999259217

>  <path>  (878) 
/opt/xchem-fragalysis-2/maxwin/BulkDock/SCRATCH/511018/C5901-P9/C5901-P9.minimised.mol

>  <scratch_subdir>  (878) 
/opt/xchem-fragalysis-2/maxwin/BulkDock/SCRATCH/511018/C5901-P9

>  <fragmenstein_runtime>  (878) 
12.041180610656738

>  <fragmenstein_outcome>  (878) 
too moved

>  <fragmenstein_mode>  (878) 
expansion

>  <fragmenstein_error>  (878) 


$$$$
C5917-P70
     RDKit          3D

 54 56  0  0  0  0  0  0  0  0999 V2000
  -14.5610  -11.3696   24.2495 O   0  0  0  0  0  0  0  0  0  0  0  0
  -13.4099  -11.3798   23.8951 C   0  0  0  0  0  0  0  0  0  0  0  0
  -12.8133  -12.7553   23.6065 C   0  0  0  0  0  0  0  0  0  0  0  0
  -13.3966  -13.8822   23.0857 C   0  0  0  0  0  0  0  0  0  0  0  0
  -14.7953  -14.0366   22.4978 C   0  0  0  0  0  0  0  0  0  0  0  0
  -14.9413  -15.1337   21.3847 C   0  0  0  0  0  0  0  0  0  0  0  0
  -14.2434  -16.4177   21.5854 N   0  0  0  0  0  0  0  0  0  0  0  0
  -13.5741  -16.4494   22.8865 C   0  0  0  0  0  0  0  0  0  0  0  0
  -12.6655  -15.2168   23.0653 C   0  0  0  0  0  0  0  0  0  0  0  0
  -12.5014  -10.2778   23.5982 N   0  0  0  0  0  0  0  0  0  0  0  0
  -12.7469   -8.8097   23.5348 C   0  0  0  0  0  0  0  0  0  0  0  0
  -11.5245   -7.9359   23.6102 C   0  0  0  0  0  0  0  0  0  0  0  0
  -11.0283   -8.4013   24.9255 C   0  0  0  0  0  0  0  0  0  0  0  0
   -9.5991   -8.2943   25.0440 O   0  0  0  0  0  0  0  0  0  0  0  0
   -9.0781   -6.9281   25.0161 C   0  0  0  0  0  0  0  0  0  0  0  0
   -8.4204   -6.6600   23.6438 C   0  0  0  0  0  0  0  0  0  0  0  0
   -7.8459   -5.3475   23.3402 N   0  0  0  0  0  0  0  0  0  0  0  0
   -8.7826   -4.2181   23.3791 C   0  0  0  0  0  0  0  0  0  0  0  0
   -9.3413   -3.8389   22.0139 C   0  0  0  0  0  0  0  0  0  0  0  0
   -8.2408   -3.5100   21.0133 C   0  0  0  0  0  0  0  0  0  0  0  0
   -6.8920   -4.1022   21.4178 C   0  0  0  0  0  0  0  0  0  0  0  0
   -7.0809   -5.4458   22.0839 C   0  0  0  0  0  0  0  0  0  0  0  0
  -11.7023   -9.8473   24.9029 C   0  0  0  0  0  0  0  0  0  0  0  0
  -11.8060  -12.8085   23.9923 H   0  0  0  0  0  0  0  0  0  0  0  0
  -15.1574  -13.0802   22.1048 H   0  0  0  0  0  0  0  0  0  0  0  0
  -15.4660  -14.3097   23.3236 H   0  0  0  0  0  0  0  0  0  0  0  0
  -14.5964  -14.7332   20.4279 H   0  0  0  0  0  0  0  0  0  0  0  0
  -16.0121  -15.3337   21.2538 H   0  0  0  0  0  0  0  0  0  0  0  0
  -14.9226  -17.1794   21.5348 H   0  0  0  0  0  0  0  0  0  0  0  0
  -14.3151  -16.4982   23.6945 H   0  0  0  0  0  0  0  0  0  0  0  0
  -12.9744  -17.3608   22.9628 H   0  0  0  0  0  0  0  0  0  0  0  0
  -11.9888  -15.1693   22.2212 H   0  0  0  0  0  0  0  0  0  0  0  0
  -12.0844  -15.3438   23.9845 H   0  0  0  0  0  0  0  0  0  0  0  0
  -13.2214   -8.6567   22.5563 H   0  0  0  0  0  0  0  0  0  0  0  0
  -13.5344   -8.5297   24.2555 H   0  0  0  0  0  0  0  0  0  0  0  0
  -11.7654   -6.8694   23.5938 H   0  0  0  0  0  0  0  0  0  0  0  0
  -10.8367   -8.1529   22.7921 H   0  0  0  0  0  0  0  0  0  0  0  0
  -11.4779   -7.8437   25.7576 H   0  0  0  0  0  0  0  0  0  0  0  0
   -8.3256   -6.8779   25.8077 H   0  0  0  0  0  0  0  0  0  0  0  0
   -9.8740   -6.2166   25.2541 H   0  0  0  0  0  0  0  0  0  0  0  0
   -9.1391   -6.9100   22.8579 H   0  0  0  0  0  0  0  0  0  0  0  0
   -7.6290   -7.4164   23.5509 H   0  0  0  0  0  0  0  0  0  0  0  0
   -8.2542   -3.3480   23.7838 H   0  0  0  0  0  0  0  0  0  0  0  0
   -9.6081   -4.3979   24.0747 H   0  0  0  0  0  0  0  0  0  0  0  0
  -10.0226   -2.9853   22.1081 H   0  0  0  0  0  0  0  0  0  0  0  0
   -9.9443   -4.6711   21.6281 H   0  0  0  0  0  0  0  0  0  0  0  0
   -8.1604   -2.4253   20.9067 H   0  0  0  0  0  0  0  0  0  0  0  0
   -8.5326   -3.8897   20.0264 H   0  0  0  0  0  0  0  0  0  0  0  0
   -6.2565   -4.2093   20.5321 H   0  0  0  0  0  0  0  0  0  0  0  0
   -6.3712   -3.4520   22.1220 H   0  0  0  0  0  0  0  0  0  0  0  0
   -6.1057   -5.9030   22.2866 H   0  0  0  0  0  0  0  0  0  0  0  0
   -7.5897   -6.1043   21.3659 H   0  0  0  0  0  0  0  0  0  0  0  0
  -12.3879   -9.9498   25.7586 H   0  0  0  0  0  0  0  0  0  0  0  0
  -10.9285  -10.6143   25.0335 H   0  0  0  0  0  0  0  0  0  0  0  0
  1  2  2  0
  2  3  1  0
  3  4  2  3
  4  5  1  0
  5  6  1  0
  6  7  1  0
  7  8  1  0
  8  9  1  0
  2 10  1  0
 10 11  1  0
 11 12  1  0
 12 13  1  0
 13 14  1  0
 14 15  1  0
 15 16  1  0
 16 17  1  0
 17 18  1  0
 18 19  1  0
 19 20  1  0
 20 21  1  0
 21 22  1  0
 13 23  1  0
  9  4  1  0
 23 10  1  0
 22 17  1  0
  3 24  1  0
  5 25  1  0
  5 26  1  0
  6 27  1  0
  6 28  1  0
  7 29  1  0
  8 30  1  0
  8 31  1  0
  9 32  1  0
  9 33  1  0
 11 34  1  0
 11 35  1  0
 12 36  1  0
 12 37  1  0
 13 38  1  0
 15 39  1  0
 15 40  1  0
 16 41  1  0
 16 42  1  0
 18 43  1  0
 18 44  1  0
 19 45  1  0
 19 46  1  0
 20 47  1  0
 20 48  1  0
 21 49  1  0
 21 50  1  0
 22 51  1  0
 22 52  1  0
 23 53  1  0
 23 54  1  0
M  END
>  <Energy>  (879) 
154.30700738205016

>  <compound_id>  (879) 
5917

>  <target_id>  (879) 
1

>  <reference_id>  (879) 
70

>  <inspiration_ids>  (879) 
[70, 9]

>  <energy_score>  (879) 
28.797136296680037

>  <distance_score>  (879) 
12.830588295920041

>  <path>  (879) 
/opt/xchem-fragalysis-2/maxwin/BulkDock/SCRATCH/511018/C5917-P70/C5917-P70.minimised.mol

>  <scratch_subdir>  (879) 
/opt/xchem-fragalysis-2/maxwin/BulkDock/SCRATCH/511018/C5917-P70

>  <fragmenstein_runtime>  (879) 
36.883381366729736

>  <fragmenstein_outcome>  (879) 
too moved

>  <fragmenstein_mode>  (879) 
expansion

>  <fragmenstein_error>  (879) 


$$$$
C5917-P9
     RDKit          3D

 54 56  0  0  0  0  0  0  0  0999 V2000
    1.1821  -10.6184   16.1756 O   0  0  0  0  0  0  0  0  0  0  0  0
    0.4882  -10.9910   17.0947 C   0  0  0  0  0  0  0  0  0  0  0  0
    0.5826  -12.5586   17.2649 C   0  0  0  0  0  0  0  0  0  0  0  0
   -0.2887  -13.4608   16.6573 C   0  0  0  0  0  0  0  0  0  0  0  0
   -1.7724  -13.7882   17.1523 C   0  0  0  0  0  0  0  0  0  0  0  0
   -2.8648  -14.6258   16.1630 C   0  0  0  0  0  0  0  0  0  0  0  0
   -2.3664  -15.0892   14.5024 N   0  0  0  0  0  0  0  0  0  0  0  0
   -0.9337  -14.6616   14.1568 C   0  0  0  0  0  0  0  0  0  0  0  0
    0.1446  -14.1368   15.2758 C   0  0  0  0  0  0  0  0  0  0  0  0
   -0.4313  -10.2591   17.9279 N   0  0  0  0  0  0  0  0  0  0  0  0
   -0.8955   -8.8584   17.8506 C   0  0  0  0  0  0  0  0  0  0  0  0
   -1.3902   -8.1844   19.0959 C   0  0  0  0  0  0  0  0  0  0  0  0
   -0.0836   -8.2243   19.7900 C   0  0  0  0  0  0  0  0  0  0  0  0
   -0.1692   -7.8969   21.2022 O   0  0  0  0  0  0  0  0  0  0  0  0
   -0.8662   -6.6335   21.4208 C   0  0  0  0  0  0  0  0  0  0  0  0
   -0.6009   -5.9245   22.7723 C   0  0  0  0  0  0  0  0  0  0  0  0
    0.6904   -5.2551   22.9723 N   0  0  0  0  0  0  0  0  0  0  0  0
    1.0515   -4.2933   21.9277 C   0  0  0  0  0  0  0  0  0  0  0  0
    2.4603   -4.4861   21.3735 C   0  0  0  0  0  0  0  0  0  0  0  0
    3.4935   -4.5008   22.4907 C   0  0  0  0  0  0  0  0  0  0  0  0
    3.0556   -5.3857   23.6573 C   0  0  0  0  0  0  0  0  0  0  0  0
    1.7647   -6.1570   23.3641 C   0  0  0  0  0  0  0  0  0  0  0  0
    0.3304   -9.6781   19.2439 C   0  0  0  0  0  0  0  0  0  0  0  0
    1.6257  -12.7295   16.9657 H   0  0  0  0  0  0  0  0  0  0  0  0
   -2.2542  -12.9566   17.6733 H   0  0  0  0  0  0  0  0  0  0  0  0
   -1.6740  -14.4892   17.9565 H   0  0  0  0  0  0  0  0  0  0  0  0
   -3.6507  -13.9930   16.2259 H   0  0  0  0  0  0  0  0  0  0  0  0
   -3.3558  -15.5088   16.5821 H   0  0  0  0  0  0  0  0  0  0  0  0
   -2.5209  -16.0868   14.3692 H   0  0  0  0  0  0  0  0  0  0  0  0
   -0.4669  -15.5067   13.6344 H   0  0  0  0  0  0  0  0  0  0  0  0
   -1.0125  -13.8763   13.3939 H   0  0  0  0  0  0  0  0  0  0  0  0
    0.8033  -13.4330   14.7481 H   0  0  0  0  0  0  0  0  0  0  0  0
    0.7887  -14.9881   15.5358 H   0  0  0  0  0  0  0  0  0  0  0  0
   -0.1383   -8.2663   17.3079 H   0  0  0  0  0  0  0  0  0  0  0  0
   -1.7357   -8.9011   17.1441 H   0  0  0  0  0  0  0  0  0  0  0  0
   -1.7531   -7.1722   18.8971 H   0  0  0  0  0  0  0  0  0  0  0  0
   -2.1776   -8.7479   19.6038 H   0  0  0  0  0  0  0  0  0  0  0  0
    0.6226   -7.5032   19.3532 H   0  0  0  0  0  0  0  0  0  0  0  0
   -0.6666   -5.9581   20.5846 H   0  0  0  0  0  0  0  0  0  0  0  0
   -1.9375   -6.8684   21.3906 H   0  0  0  0  0  0  0  0  0  0  0  0
   -1.3775   -5.1580   22.8910 H   0  0  0  0  0  0  0  0  0  0  0  0
   -0.7662   -6.6436   23.5838 H   0  0  0  0  0  0  0  0  0  0  0  0
    0.3660   -4.3087   21.0800 H   0  0  0  0  0  0  0  0  0  0  0  0
    0.9617   -3.2934   22.3514 H   0  0  0  0  0  0  0  0  0  0  0  0
    2.5070   -5.4345   20.8214 H   0  0  0  0  0  0  0  0  0  0  0  0
    2.7029   -3.7129   20.6404 H   0  0  0  0  0  0  0  0  0  0  0  0
    4.4552   -4.8480   22.0951 H   0  0  0  0  0  0  0  0  0  0  0  0
    3.6611   -3.4802   22.8552 H   0  0  0  0  0  0  0  0  0  0  0  0
    3.8548   -6.1007   23.8881 H   0  0  0  0  0  0  0  0  0  0  0  0
    2.9411   -4.7732   24.5574 H   0  0  0  0  0  0  0  0  0  0  0  0
    1.9546   -6.9087   22.5880 H   0  0  0  0  0  0  0  0  0  0  0  0
    1.4853   -6.7060   24.2702 H   0  0  0  0  0  0  0  0  0  0  0  0
    0.1899  -10.4375   20.0193 H   0  0  0  0  0  0  0  0  0  0  0  0
    1.4064   -9.6740   19.0180 H   0  0  0  0  0  0  0  0  0  0  0  0
  1  2  2  0
  2  3  1  0
  3  4  2  3
  4  5  1  0
  5  6  1  0
  6  7  1  0
  7  8  1  0
  8  9  1  0
  2 10  1  0
 10 11  1  0
 11 12  1  0
 12 13  1  0
 13 14  1  0
 14 15  1  0
 15 16  1  0
 16 17  1  0
 17 18  1  0
 18 19  1  0
 19 20  1  0
 20 21  1  0
 21 22  1  0
 13 23  1  0
  9  4  1  0
 23 10  1  0
 22 17  1  0
  3 24  1  0
  5 25  1  0
  5 26  1  0
  6 27  1  0
  6 28  1  0
  7 29  1  0
  8 30  1  0
  8 31  1  0
  9 32  1  0
  9 33  1  0
 11 34  1  0
 11 35  1  0
 12 36  1  0
 12 37  1  0
 13 38  1  0
 15 39  1  0
 15 40  1  0
 16 41  1  0
 16 42  1  0
 18 43  1  0
 18 44  1  0
 19 45  1  0
 19 46  1  0
 20 47  1  0
 20 48  1  0
 21 49  1  0
 21 50  1  0
 22 51  1  0
 22 52  1  0
 23 53  1  0
 23 54  1  0
M  END
>  <Energy>  (880) 
263.70203133549552

>  <compound_id>  (880) 
5917

>  <target_id>  (880) 
1

>  <reference_id>  (880) 
9

>  <inspiration_ids>  (880) 
[70, 9]

>  <energy_score>  (880) 
138.19216025012219

>  <distance_score>  (880) 
13.00438493633617

>  <path>  (880) 
/opt/xchem-fragalysis-2/maxwin/BulkDock/SCRATCH/511018/C5917-P9/C5917-P9.minimised.mol

>  <scratch_subdir>  (880) 
/opt/xchem-fragalysis-2/maxwin/BulkDock/SCRATCH/511018/C5917-P9

>  <fragmenstein_runtime>  (880) 
25.248755931854248

>  <fragmenstein_outcome>  (880) 
too moved

>  <fragmenstein_mode>  (880) 
expansion

>  <fragmenstein_error>  (880) 


$$$$
C5925-P70
     RDKit          3D

 47 49  0  0  0  0  0  0  0  0999 V2000
   -4.7515   -7.0060   22.7696 C   0  0  0  0  0  0  0  0  0  0  0  0
   -6.1884   -7.0127   24.0256 C   0  0  0  0  0  0  0  0  0  0  0  0
   -6.9529   -6.1781   22.3319 C   0  0  0  0  0  0  0  0  0  0  0  0
   -7.1510   -8.7949   24.3675 O   0  0  0  0  0  0  0  0  0  0  0  0
   -7.6374  -10.3316   23.3115 C   0  0  0  0  0  0  0  0  0  0  0  0
   -9.2524  -10.6756   22.8860 C   0  0  0  0  0  0  0  0  0  0  0  0
   -9.5815  -12.1391   22.1426 C   0  0  0  0  0  0  0  0  0  0  0  0
  -10.8679  -12.6720   21.8011 N   0  0  0  0  0  0  0  0  0  0  0  0
  -11.7153  -13.1970   22.8886 C   0  0  0  0  0  0  0  0  0  0  0  0
  -12.0871  -14.6658   22.5136 C   0  0  0  0  0  0  0  0  0  0  0  0
  -11.0325  -15.1220   21.4981 C   0  0  0  0  0  0  0  0  0  0  0  0
  -11.3332  -16.3397   20.6872 N   0  0  0  0  0  0  0  0  0  0  0  0
  -12.6548  -16.4140   20.0671 C   0  0  0  0  0  0  0  0  0  0  0  0
  -12.7195  -17.5317   19.0147 C   0  0  0  0  0  0  0  0  0  0  0  0
  -11.9804  -18.7984   19.4358 C   0  0  0  0  0  0  0  0  0  0  0  0
  -11.7357  -18.8385   20.9290 C   0  0  0  0  0  0  0  0  0  0  0  0
  -10.9805  -17.5854   21.3968 C   0  0  0  0  0  0  0  0  0  0  0  0
  -10.8116  -13.7787   20.7468 C   0  0  0  0  0  0  0  0  0  0  0  0
   -8.4595  -12.9427   21.7984 N   0  0  0  0  0  0  0  0  0  0  0  0
   -7.1389  -12.4149   22.0968 C   0  0  0  0  0  0  0  0  0  0  0  0
   -6.7210  -11.3512   22.9868 N   0  0  0  0  0  0  0  0  0  0  0  0
   -4.4338   -7.9514   22.3291 H   0  0  0  0  0  0  0  0  0  0  0  0
   -3.8290   -6.5355   23.1020 H   0  0  0  0  0  0  0  0  0  0  0  0
   -4.7805   -6.3160   21.9384 H   0  0  0  0  0  0  0  0  0  0  0  0
   -6.6816   -6.4023   24.7384 H   0  0  0  0  0  0  0  0  0  0  0  0
   -6.3271   -5.4998   21.7023 H   0  0  0  0  0  0  0  0  0  0  0  0
   -7.4252   -5.3120   22.7399 H   0  0  0  0  0  0  0  0  0  0  0  0
   -7.6782   -6.7704   21.7430 H   0  0  0  0  0  0  0  0  0  0  0  0
  -10.1337  -10.1576   23.1778 H   0  0  0  0  0  0  0  0  0  0  0  0
  -12.6324  -12.5983   22.9387 H   0  0  0  0  0  0  0  0  0  0  0  0
  -11.2697  -13.1477   23.8849 H   0  0  0  0  0  0  0  0  0  0  0  0
  -12.1199  -15.3062   23.4006 H   0  0  0  0  0  0  0  0  0  0  0  0
  -13.0912  -14.6581   22.0740 H   0  0  0  0  0  0  0  0  0  0  0  0
  -10.0970  -15.3135   22.0430 H   0  0  0  0  0  0  0  0  0  0  0  0
  -13.4280  -16.5860   20.8268 H   0  0  0  0  0  0  0  0  0  0  0  0
  -12.9061  -15.4712   19.5686 H   0  0  0  0  0  0  0  0  0  0  0  0
  -12.3016  -17.1676   18.0690 H   0  0  0  0  0  0  0  0  0  0  0  0
  -13.7723  -17.7675   18.8173 H   0  0  0  0  0  0  0  0  0  0  0  0
  -11.0060  -18.8184   18.9359 H   0  0  0  0  0  0  0  0  0  0  0  0
  -12.5480  -19.6807   19.1266 H   0  0  0  0  0  0  0  0  0  0  0  0
  -11.1674  -19.7360   21.1982 H   0  0  0  0  0  0  0  0  0  0  0  0
  -12.6985  -18.9028   21.4519 H   0  0  0  0  0  0  0  0  0  0  0  0
   -9.9042  -17.7496   21.2652 H   0  0  0  0  0  0  0  0  0  0  0  0
  -11.1557  -17.4840   22.4754 H   0  0  0  0  0  0  0  0  0  0  0  0
  -11.6445  -13.5882   20.0585 H   0  0  0  0  0  0  0  0  0  0  0  0
   -9.9028  -13.7837   20.1367 H   0  0  0  0  0  0  0  0  0  0  0  0
   -6.3505  -13.0349   21.6862 H   0  0  0  0  0  0  0  0  0  0  0  0
  1  2  1  0
  2  3  1  0
  2  4  1  0
  4  5  1  0
  5  6  2  0
  6  7  1  0
  7  8  1  0
  8  9  1  0
  9 10  1  0
 10 11  1  0
 11 12  1  0
 12 13  1  0
 13 14  1  0
 14 15  1  0
 15 16  1  0
 16 17  1  0
 11 18  1  0
  7 19  2  0
 19 20  1  0
 20 21  2  0
 21  5  1  0
 18  8  1  0
 17 12  1  0
  1 22  1  0
  1 23  1  0
  1 24  1  0
  2 25  1  0
  3 26  1  0
  3 27  1  0
  3 28  1  0
  6 29  1  0
  9 30  1  0
  9 31  1  0
 10 32  1  0
 10 33  1  0
 11 34  1  0
 13 35  1  0
 13 36  1  0
 14 37  1  0
 14 38  1  0
 15 39  1  0
 15 40  1  0
 16 41  1  0
 16 42  1  0
 17 43  1  0
 17 44  1  0
 18 45  1  0
 18 46  1  0
 20 47  1  0
M  END
>  <Energy>  (881) 
442.35363063982089

>  <compound_id>  (881) 
5925

>  <target_id>  (881) 
1

>  <reference_id>  (881) 
70

>  <inspiration_ids>  (881) 
[70, 9]

>  <energy_score>  (881) 
421.5183384517693

>  <distance_score>  (881) 
13.321929128531577

>  <path>  (881) 
/opt/xchem-fragalysis-2/maxwin/BulkDock/SCRATCH/511018/C5925-P70/C5925-P70.minimised.mol

>  <scratch_subdir>  (881) 
/opt/xchem-fragalysis-2/maxwin/BulkDock/SCRATCH/511018/C5925-P70

>  <fragmenstein_runtime>  (881) 
22.287819623947144

>  <fragmenstein_outcome>  (881) 
too moved

>  <fragmenstein_mode>  (881) 
expansion

>  <fragmenstein_error>  (881) 


$$$$
C5925-P9
     RDKit          3D

 47 49  0  0  0  0  0  0  0  0999 V2000
   -3.7033   -9.0892   22.3910 C   0  0  0  0  0  0  0  0  0  0  0  0
   -3.4036   -7.8763   21.5918 C   0  0  0  0  0  0  0  0  0  0  0  0
   -4.2063   -6.6682   22.1332 C   0  0  0  0  0  0  0  0  0  0  0  0
   -2.8951   -8.0266   20.0067 O   0  0  0  0  0  0  0  0  0  0  0  0
   -2.5225   -9.1035   19.1538 C   0  0  0  0  0  0  0  0  0  0  0  0
   -3.0207  -10.4338   19.1162 C   0  0  0  0  0  0  0  0  0  0  0  0
   -2.6931  -11.3972   18.1376 C   0  0  0  0  0  0  0  0  0  0  0  0
   -3.2823  -12.6975   18.1088 N   0  0  0  0  0  0  0  0  0  0  0  0
   -4.6758  -12.9122   18.5288 C   0  0  0  0  0  0  0  0  0  0  0  0
   -5.0573  -14.3754   18.1938 C   0  0  0  0  0  0  0  0  0  0  0  0
   -3.8441  -14.9714   17.4757 C   0  0  0  0  0  0  0  0  0  0  0  0
   -4.1189  -16.0826   16.5326 N   0  0  0  0  0  0  0  0  0  0  0  0
   -4.9140  -15.7529   15.3410 C   0  0  0  0  0  0  0  0  0  0  0  0
   -5.5771  -16.9704   14.6688 C   0  0  0  0  0  0  0  0  0  0  0  0
   -4.6805  -18.1973   14.7560 C   0  0  0  0  0  0  0  0  0  0  0  0
   -4.3125  -18.5092   16.2109 C   0  0  0  0  0  0  0  0  0  0  0  0
   -4.5654  -17.3296   17.1636 C   0  0  0  0  0  0  0  0  0  0  0  0
   -3.0502  -13.6833   17.0073 C   0  0  0  0  0  0  0  0  0  0  0  0
   -1.7522  -11.0033   17.2813 N   0  0  0  0  0  0  0  0  0  0  0  0
   -1.2688   -9.7237   17.3866 C   0  0  0  0  0  0  0  0  0  0  0  0
   -1.6090   -8.7512   18.2582 N   0  0  0  0  0  0  0  0  0  0  0  0
   -4.4116   -8.5390   22.8749 H   0  0  0  0  0  0  0  0  0  0  0  0
   -4.1701   -9.9781   22.0262 H   0  0  0  0  0  0  0  0  0  0  0  0
   -3.1954   -9.4226   23.2714 H   0  0  0  0  0  0  0  0  0  0  0  0
   -2.4867   -7.6177   22.0983 H   0  0  0  0  0  0  0  0  0  0  0  0
   -5.0984   -6.9395   22.6374 H   0  0  0  0  0  0  0  0  0  0  0  0
   -4.4068   -5.7702   21.5301 H   0  0  0  0  0  0  0  0  0  0  0  0
   -3.5981   -6.3392   22.9675 H   0  0  0  0  0  0  0  0  0  0  0  0
   -3.7742  -10.7586   19.8066 H   0  0  0  0  0  0  0  0  0  0  0  0
   -4.8163  -12.7344   19.5955 H   0  0  0  0  0  0  0  0  0  0  0  0
   -5.3338  -12.2594   17.9462 H   0  0  0  0  0  0  0  0  0  0  0  0
   -5.9684  -14.3757   17.5878 H   0  0  0  0  0  0  0  0  0  0  0  0
   -5.2862  -14.9387   19.1058 H   0  0  0  0  0  0  0  0  0  0  0  0
   -3.1987  -15.3969   18.2596 H   0  0  0  0  0  0  0  0  0  0  0  0
   -5.7040  -15.0271   15.5596 H   0  0  0  0  0  0  0  0  0  0  0  0
   -4.2440  -15.2758   14.6157 H   0  0  0  0  0  0  0  0  0  0  0  0
   -6.5354  -17.1696   15.1609 H   0  0  0  0  0  0  0  0  0  0  0  0
   -5.7981  -16.7374   13.6211 H   0  0  0  0  0  0  0  0  0  0  0  0
   -5.1464  -19.0583   14.2714 H   0  0  0  0  0  0  0  0  0  0  0  0
   -3.7586  -18.0001   14.1932 H   0  0  0  0  0  0  0  0  0  0  0  0
   -4.8623  -19.3795   16.5795 H   0  0  0  0  0  0  0  0  0  0  0  0
   -3.2519  -18.7900   16.2464 H   0  0  0  0  0  0  0  0  0  0  0  0
   -5.6252  -17.2705   17.4415 H   0  0  0  0  0  0  0  0  0  0  0  0
   -4.0061  -17.5227   18.0870 H   0  0  0  0  0  0  0  0  0  0  0  0
   -1.9847  -13.9047   16.8888 H   0  0  0  0  0  0  0  0  0  0  0  0
   -3.4545  -13.2922   16.0668 H   0  0  0  0  0  0  0  0  0  0  0  0
   -0.5093   -9.4574   16.6561 H   0  0  0  0  0  0  0  0  0  0  0  0
  1  2  1  0
  2  3  1  0
  2  4  1  0
  4  5  1  0
  5  6  2  0
  6  7  1  0
  7  8  1  0
  8  9  1  0
  9 10  1  0
 10 11  1  0
 11 12  1  0
 12 13  1  0
 13 14  1  0
 14 15  1  0
 15 16  1  0
 16 17  1  0
 11 18  1  0
  7 19  2  0
 19 20  1  0
 20 21  2  0
 21  5  1  0
 18  8  1  0
 17 12  1  0
  1 22  1  0
  1 23  1  0
  1 24  1  0
  2 25  1  0
  3 26  1  0
  3 27  1  0
  3 28  1  0
  6 29  1  0
  9 30  1  0
  9 31  1  0
 10 32  1  0
 10 33  1  0
 11 34  1  0
 13 35  1  0
 13 36  1  0
 14 37  1  0
 14 38  1  0
 15 39  1  0
 15 40  1  0
 16 41  1  0
 16 42  1  0
 17 43  1  0
 17 44  1  0
 18 45  1  0
 18 46  1  0
 20 47  1  0
M  END
>  <Energy>  (882) 
90.064401863586383

>  <compound_id>  (882) 
5925

>  <target_id>  (882) 
1

>  <reference_id>  (882) 
9

>  <inspiration_ids>  (882) 
[70, 9]

>  <energy_score>  (882) 
69.22910967554373

>  <distance_score>  (882) 
13.982217091728048

>  <path>  (882) 
/opt/xchem-fragalysis-2/maxwin/BulkDock/SCRATCH/511018/C5925-P9/C5925-P9.minimised.mol

>  <scratch_subdir>  (882) 
/opt/xchem-fragalysis-2/maxwin/BulkDock/SCRATCH/511018/C5925-P9

>  <fragmenstein_runtime>  (882) 
21.701990365982056

>  <fragmenstein_outcome>  (882) 
too moved

>  <fragmenstein_mode>  (882) 
expansion

>  <fragmenstein_error>  (882) 


$$$$
C5950-P70
     RDKit          3D

 55 56  0  0  0  0  0  0  0  0999 V2000
   -3.3611   -3.8804   22.1670 C   0  0  0  0  0  0  0  0  0  0  0  0
   -4.5690   -3.4501   21.5416 O   0  0  0  0  0  0  0  0  0  0  0  0
   -4.6822   -3.9686   20.2043 C   0  0  0  0  0  0  0  0  0  0  0  0
   -6.1434   -3.9048   19.6485 C   0  0  0  0  0  0  0  0  0  0  0  0
   -6.6262   -2.5566   19.6923 O   0  0  0  0  0  0  0  0  0  0  0  0
   -6.0408   -1.6876   18.7306 C   0  0  0  0  0  0  0  0  0  0  0  0
   -6.2132   -4.6804   18.2462 C   0  0  0  0  0  0  0  0  0  0  0  0
   -5.3088   -4.6925   17.5252 O   0  0  0  0  0  0  0  0  0  0  0  0
   -7.6601   -5.4117   18.1974 N   0  0  0  0  0  0  0  0  0  0  0  0
   -8.3171   -6.1340   17.3146 C   0  0  0  0  0  0  0  0  0  0  0  0
   -9.3669   -7.1327   18.1835 C   0  0  0  0  0  0  0  0  0  0  0  0
   -9.4228   -7.7276   16.8835 C   0  0  0  0  0  0  0  0  0  0  0  0
   -9.3341   -9.1869   16.8173 N   0  0  0  0  0  0  0  0  0  0  0  0
  -10.3643  -10.2180   16.9714 C   0  0  0  0  0  0  0  0  0  0  0  0
  -11.5233  -10.1254   17.2692 O   0  0  0  0  0  0  0  0  0  0  0  0
   -9.8050  -11.6493   16.6048 C   0  0  0  0  0  0  0  0  0  0  0  0
  -10.8587  -12.8178   16.7591 C   0  0  0  0  0  0  0  0  0  0  0  0
  -10.6251  -14.0582   15.9750 N   0  0  0  0  0  0  0  0  0  0  0  0
   -9.4794  -14.8463   16.4595 C   0  0  0  0  0  0  0  0  0  0  0  0
   -9.5174  -16.3244   16.0299 C   0  0  0  0  0  0  0  0  0  0  0  0
  -10.2778  -16.5105   14.7205 C   0  0  0  0  0  0  0  0  0  0  0  0
  -11.6966  -15.9585   14.8302 C   0  0  0  0  0  0  0  0  0  0  0  0
  -11.8342  -14.8962   15.9239 C   0  0  0  0  0  0  0  0  0  0  0  0
   -8.1191   -6.7495   16.8414 C   0  0  0  0  0  0  0  0  0  0  0  0
   -3.2597   -3.3820   23.1330 H   0  0  0  0  0  0  0  0  0  0  0  0
   -2.4895   -3.6522   21.5494 H   0  0  0  0  0  0  0  0  0  0  0  0
   -3.4061   -4.9593   22.3481 H   0  0  0  0  0  0  0  0  0  0  0  0
   -4.3437   -5.0094   20.1965 H   0  0  0  0  0  0  0  0  0  0  0  0
   -3.9991   -3.4073   19.5606 H   0  0  0  0  0  0  0  0  0  0  0  0
   -6.7743   -4.4571   20.3550 H   0  0  0  0  0  0  0  0  0  0  0  0
   -6.1944   -2.0695   17.7174 H   0  0  0  0  0  0  0  0  0  0  0  0
   -6.5407   -0.7171   18.7869 H   0  0  0  0  0  0  0  0  0  0  0  0
   -4.9770   -1.5395   18.9137 H   0  0  0  0  0  0  0  0  0  0  0  0
   -8.6176   -5.1960   16.3875 H   0  0  0  0  0  0  0  0  0  0  0  0
   -9.2273   -5.3870   17.6177 H   0  0  0  0  0  0  0  0  0  0  0  0
   -8.8643   -7.7135   18.9577 H   0  0  0  0  0  0  0  0  0  0  0  0
  -10.2958   -6.6684   18.5326 H   0  0  0  0  0  0  0  0  0  0  0  0
  -10.2469   -7.3641   16.2586 H   0  0  0  0  0  0  0  0  0  0  0  0
   -8.4816   -9.6185   16.4747 H   0  0  0  0  0  0  0  0  0  0  0  0
   -9.4828  -11.6001   15.5577 H   0  0  0  0  0  0  0  0  0  0  0  0
   -8.9310  -11.8582   17.2309 H   0  0  0  0  0  0  0  0  0  0  0  0
  -11.8207  -12.4053   16.4299 H   0  0  0  0  0  0  0  0  0  0  0  0
  -10.9790  -13.0555   17.8229 H   0  0  0  0  0  0  0  0  0  0  0  0
   -9.4086  -14.8144   17.5545 H   0  0  0  0  0  0  0  0  0  0  0  0
   -8.5640  -14.3862   16.0687 H   0  0  0  0  0  0  0  0  0  0  0  0
   -8.4896  -16.6882   15.9409 H   0  0  0  0  0  0  0  0  0  0  0  0
   -9.9969  -16.9143   16.8193 H   0  0  0  0  0  0  0  0  0  0  0  0
   -9.7441  -15.9781   13.9227 H   0  0  0  0  0  0  0  0  0  0  0  0
  -10.3154  -17.5575   14.4168 H   0  0  0  0  0  0  0  0  0  0  0  0
  -12.4099  -16.7575   15.0481 H   0  0  0  0  0  0  0  0  0  0  0  0
  -11.9856  -15.5386   13.8590 H   0  0  0  0  0  0  0  0  0  0  0  0
  -12.0241  -15.3639   16.8991 H   0  0  0  0  0  0  0  0  0  0  0  0
  -12.7198  -14.2938   15.6867 H   0  0  0  0  0  0  0  0  0  0  0  0
   -7.6819   -6.5734   15.6973 H   0  0  0  0  0  0  0  0  0  0  0  0
   -7.2092   -7.5430   17.0273 H   0  0  0  0  0  0  0  0  0  0  0  0
  1  2  1  0
  2  3  1  0
  3  4  1  0
  4  5  1  0
  5  6  1  0
  4  7  1  0
  7  8  2  0
  7  9  1  0
  9 10  1  0
 10 11  1  0
 11 12  1  0
 12 13  1  0
 13 14  1  0
 14 15  2  0
 14 16  1  0
 16 17  1  0
 17 18  1  0
 18 19  1  0
 19 20  1  0
 20 21  1  0
 21 22  1  0
 22 23  1  0
 12 24  1  0
 24  9  1  0
 23 18  1  0
  1 25  1  0
  1 26  1  0
  1 27  1  0
  3 28  1  0
  3 29  1  0
  4 30  1  0
  6 31  1  0
  6 32  1  0
  6 33  1  0
 10 34  1  0
 10 35  1  0
 11 36  1  0
 11 37  1  0
 12 38  1  0
 13 39  1  0
 16 40  1  0
 16 41  1  0
 17 42  1  0
 17 43  1  0
 19 44  1  0
 19 45  1  0
 20 46  1  0
 20 47  1  0
 21 48  1  0
 21 49  1  0
 22 50  1  0
 22 51  1  0
 23 52  1  0
 23 53  1  0
 24 54  1  0
 24 55  1  0
M  END
>  <Energy>  (883) 
819.79800193638482

>  <compound_id>  (883) 
5950

>  <target_id>  (883) 
1

>  <reference_id>  (883) 
70

>  <inspiration_ids>  (883) 
[70, 9]

>  <energy_score>  (883) 
719.0038702140207

>  <distance_score>  (883) 
12.344709246488737

>  <path>  (883) 
/opt/xchem-fragalysis-2/maxwin/BulkDock/SCRATCH/511018/C5950-P70/C5950-P70.minimised.mol

>  <scratch_subdir>  (883) 
/opt/xchem-fragalysis-2/maxwin/BulkDock/SCRATCH/511018/C5950-P70

>  <fragmenstein_runtime>  (883) 
35.01928114891052

>  <fragmenstein_outcome>  (883) 
too moved

>  <fragmenstein_mode>  (883) 
expansion

>  <fragmenstein_error>  (883) 


$$$$
C5950-P9
     RDKit          3D

 55 56  0  0  0  0  0  0  0  0999 V2000
   -6.1386   -0.3190   18.2308 C   0  0  0  0  0  0  0  0  0  0  0  0
   -5.6121   -1.5522   18.7226 O   0  0  0  0  0  0  0  0  0  0  0  0
   -6.4301   -2.6662   18.3009 C   0  0  0  0  0  0  0  0  0  0  0  0
   -5.8243   -4.0093   18.7431 C   0  0  0  0  0  0  0  0  0  0  0  0
   -6.1404   -4.2273   20.1290 O   0  0  0  0  0  0  0  0  0  0  0  0
   -5.0749   -3.8582   21.0073 C   0  0  0  0  0  0  0  0  0  0  0  0
   -6.1026   -5.1811   17.6676 C   0  0  0  0  0  0  0  0  0  0  0  0
   -5.2086   -5.5487   17.0125 O   0  0  0  0  0  0  0  0  0  0  0  0
   -7.5998   -5.6515   17.7630 N   0  0  0  0  0  0  0  0  0  0  0  0
   -8.2727   -6.6288   17.2603 C   0  0  0  0  0  0  0  0  0  0  0  0
   -9.2384   -7.4799   18.3262 C   0  0  0  0  0  0  0  0  0  0  0  0
   -9.6779   -7.9663   17.0368 C   0  0  0  0  0  0  0  0  0  0  0  0
   -9.6343   -9.4242   16.8849 N   0  0  0  0  0  0  0  0  0  0  0  0
  -10.6555  -10.4441   17.1331 C   0  0  0  0  0  0  0  0  0  0  0  0
  -11.7581  -10.3484   17.5979 O   0  0  0  0  0  0  0  0  0  0  0  0
  -10.1697  -11.8714   16.6692 C   0  0  0  0  0  0  0  0  0  0  0  0
  -11.2218  -13.0169   16.9363 C   0  0  0  0  0  0  0  0  0  0  0  0
  -11.0734  -14.2821   16.1658 N   0  0  0  0  0  0  0  0  0  0  0  0
  -10.0207  -15.1572   16.6901 C   0  0  0  0  0  0  0  0  0  0  0  0
   -9.7784  -16.3383   15.7362 C   0  0  0  0  0  0  0  0  0  0  0  0
  -11.0144  -16.7120   14.9183 C   0  0  0  0  0  0  0  0  0  0  0  0
  -12.2712  -16.4782   15.7312 C   0  0  0  0  0  0  0  0  0  0  0  0
  -12.3699  -15.0072   16.1490 C   0  0  0  0  0  0  0  0  0  0  0  0
   -8.4370   -6.9817   16.5397 C   0  0  0  0  0  0  0  0  0  0  0  0
   -5.6507    0.5179   18.7282 H   0  0  0  0  0  0  0  0  0  0  0  0
   -5.9535   -0.2457   17.1550 H   0  0  0  0  0  0  0  0  0  0  0  0
   -7.2138   -0.2479   18.4244 H   0  0  0  0  0  0  0  0  0  0  0  0
   -7.4296   -2.5471   18.7356 H   0  0  0  0  0  0  0  0  0  0  0  0
   -6.5114   -2.6346   17.2081 H   0  0  0  0  0  0  0  0  0  0  0  0
   -4.7306   -3.8954   18.6777 H   0  0  0  0  0  0  0  0  0  0  0  0
   -4.2457   -4.5631   20.8920 H   0  0  0  0  0  0  0  0  0  0  0  0
   -5.4450   -3.9268   22.0328 H   0  0  0  0  0  0  0  0  0  0  0  0
   -4.7255   -2.8454   20.8065 H   0  0  0  0  0  0  0  0  0  0  0  0
   -9.1073   -5.7117   17.5154 H   0  0  0  0  0  0  0  0  0  0  0  0
   -7.3500   -7.2228   17.8476 H   0  0  0  0  0  0  0  0  0  0  0  0
   -9.9541   -6.8581   18.8682 H   0  0  0  0  0  0  0  0  0  0  0  0
   -8.7073   -8.1938   18.9549 H   0  0  0  0  0  0  0  0  0  0  0  0
  -10.6593   -7.5819   16.7365 H   0  0  0  0  0  0  0  0  0  0  0  0
   -8.8493   -9.8513   16.4031 H   0  0  0  0  0  0  0  0  0  0  0  0
   -9.9781  -11.8078   15.5916 H   0  0  0  0  0  0  0  0  0  0  0  0
   -9.2308  -12.1062   17.1818 H   0  0  0  0  0  0  0  0  0  0  0  0
  -12.1995  -12.5918   16.6723 H   0  0  0  0  0  0  0  0  0  0  0  0
  -11.2636  -13.2247   18.0130 H   0  0  0  0  0  0  0  0  0  0  0  0
  -10.2890  -15.5295   17.6878 H   0  0  0  0  0  0  0  0  0  0  0  0
   -9.0782  -14.6084   16.8017 H   0  0  0  0  0  0  0  0  0  0  0  0
   -9.4598  -17.1936   16.3387 H   0  0  0  0  0  0  0  0  0  0  0  0
   -8.9568  -16.1065   15.0480 H   0  0  0  0  0  0  0  0  0  0  0  0
  -10.9599  -17.7468   14.5952 H   0  0  0  0  0  0  0  0  0  0  0  0
  -11.0484  -16.1028   14.0061 H   0  0  0  0  0  0  0  0  0  0  0  0
  -13.1612  -16.7646   15.1613 H   0  0  0  0  0  0  0  0  0  0  0  0
  -12.2496  -17.1044   16.6297 H   0  0  0  0  0  0  0  0  0  0  0  0
  -12.8572  -14.9657   17.1323 H   0  0  0  0  0  0  0  0  0  0  0  0
  -13.0321  -14.4886   15.4444 H   0  0  0  0  0  0  0  0  0  0  0  0
   -7.5937   -7.6337   15.9357 H   0  0  0  0  0  0  0  0  0  0  0  0
   -8.8257   -6.3813   15.5560 H   0  0  0  0  0  0  0  0  0  0  0  0
  1  2  1  0
  2  3  1  0
  3  4  1  0
  4  5  1  0
  5  6  1  0
  4  7  1  0
  7  8  2  0
  7  9  1  0
  9 10  1  0
 10 11  1  0
 11 12  1  0
 12 13  1  0
 13 14  1  0
 14 15  2  0
 14 16  1  0
 16 17  1  0
 17 18  1  0
 18 19  1  0
 19 20  1  0
 20 21  1  0
 21 22  1  0
 22 23  1  0
 12 24  1  0
 24  9  1  0
 23 18  1  0
  1 25  1  0
  1 26  1  0
  1 27  1  0
  3 28  1  0
  3 29  1  0
  4 30  1  0
  6 31  1  0
  6 32  1  0
  6 33  1  0
 10 34  1  0
 10 35  1  0
 11 36  1  0
 11 37  1  0
 12 38  1  0
 13 39  1  0
 16 40  1  0
 16 41  1  0
 17 42  1  0
 17 43  1  0
 19 44  1  0
 19 45  1  0
 20 46  1  0
 20 47  1  0
 21 48  1  0
 21 49  1  0
 22 50  1  0
 22 51  1  0
 23 52  1  0
 23 53  1  0
 24 54  1  0
 24 55  1  0
M  END
>  <Energy>  (884) 
850.24629884491344

>  <compound_id>  (884) 
5950

>  <target_id>  (884) 
1

>  <reference_id>  (884) 
9

>  <inspiration_ids>  (884) 
[70, 9]

>  <energy_score>  (884) 
749.4521671225596

>  <distance_score>  (884) 
12.423013626621032

>  <path>  (884) 
/opt/xchem-fragalysis-2/maxwin/BulkDock/SCRATCH/511018/C5950-P9/C5950-P9.minimised.mol

>  <scratch_subdir>  (884) 
/opt/xchem-fragalysis-2/maxwin/BulkDock/SCRATCH/511018/C5950-P9

>  <fragmenstein_runtime>  (884) 
37.37997364997864

>  <fragmenstein_outcome>  (884) 
too moved

>  <fragmenstein_mode>  (884) 
expansion

>  <fragmenstein_error>  (884) 


$$$$
C5957-P70
     RDKit          3D

 51 52  0  0  0  0  0  0  0  0999 V2000
   -8.5453  -16.0903   17.2438 C   0  0  0  0  0  0  0  0  0  0  0  0
   -9.6826  -15.4831   18.4497 C   0  0  0  0  0  0  0  0  0  0  0  0
  -11.3871  -16.8922   18.3738 C   0  0  0  0  0  0  0  0  0  0  0  0
  -12.4246  -18.5958   18.8798 N   0  0  0  0  0  0  0  0  0  0  0  0
  -13.4462  -19.4964   18.3057 C   0  0  0  0  0  0  0  0  0  0  0  0
  -13.1856  -21.2098   18.6415 C   0  0  0  0  0  0  0  0  0  0  0  0
  -12.6897  -22.0065   19.9017 C   0  0  0  0  0  0  0  0  0  0  0  0
  -12.2967  -21.0810   20.9413 C   0  0  0  0  0  0  0  0  0  0  0  0
  -11.7867  -20.0236   20.0213 C   0  0  0  0  0  0  0  0  0  0  0  0
   -8.7572  -13.6609   18.4545 N   0  0  0  0  0  0  0  0  0  0  0  0
   -8.7498  -13.8587   19.6874 C   0  0  0  0  0  0  0  0  0  0  0  0
   -9.3018  -12.2735   18.1622 C   0  0  0  0  0  0  0  0  0  0  0  0
  -10.4349  -11.9096   17.9417 O   0  0  0  0  0  0  0  0  0  0  0  0
   -8.1135  -10.9677   18.3037 C   0  0  0  0  0  0  0  0  0  0  0  0
   -8.1205   -8.9136   18.3700 C   0  0  0  0  0  0  0  0  0  0  0  0
   -7.7379   -7.3633   19.0563 C   0  0  0  0  0  0  0  0  0  0  0  0
   -8.9199   -6.5429   19.6402 C   0  0  0  0  0  0  0  0  0  0  0  0
   -8.2718   -5.2858   20.2122 C   0  0  0  0  0  0  0  0  0  0  0  0
   -6.9489   -5.7889   20.7278 C   0  0  0  0  0  0  0  0  0  0  0  0
   -6.5659   -6.8754   19.8203 N   0  0  0  0  0  0  0  0  0  0  0  0
   -7.9037  -15.3855   16.7546 H   0  0  0  0  0  0  0  0  0  0  0  0
   -8.8432  -16.8015   16.4964 H   0  0  0  0  0  0  0  0  0  0  0  0
   -7.7989  -16.7205   17.7308 H   0  0  0  0  0  0  0  0  0  0  0  0
  -10.4137  -14.7205   18.5554 H   0  0  0  0  0  0  0  0  0  0  0  0
  -12.0112  -16.0350   18.8379 H   0  0  0  0  0  0  0  0  0  0  0  0
  -11.4765  -17.1021   17.3072 H   0  0  0  0  0  0  0  0  0  0  0  0
  -14.3992  -19.2532   18.7843 H   0  0  0  0  0  0  0  0  0  0  0  0
  -13.6060  -19.2848   17.2520 H   0  0  0  0  0  0  0  0  0  0  0  0
  -12.2146  -21.3032   18.3938 H   0  0  0  0  0  0  0  0  0  0  0  0
  -13.5194  -21.8954   17.8687 H   0  0  0  0  0  0  0  0  0  0  0  0
  -13.4157  -22.6677   20.3218 H   0  0  0  0  0  0  0  0  0  0  0  0
  -11.8131  -22.6001   19.7379 H   0  0  0  0  0  0  0  0  0  0  0  0
  -11.4891  -21.5331   21.5412 H   0  0  0  0  0  0  0  0  0  0  0  0
  -13.0146  -20.7556   21.7008 H   0  0  0  0  0  0  0  0  0  0  0  0
  -11.3237  -19.6689   20.8939 H   0  0  0  0  0  0  0  0  0  0  0  0
  -10.9538  -20.5367   19.5038 H   0  0  0  0  0  0  0  0  0  0  0  0
   -8.5129  -14.8971   19.9585 H   0  0  0  0  0  0  0  0  0  0  0  0
   -9.3465  -13.1704   20.2789 H   0  0  0  0  0  0  0  0  0  0  0  0
   -7.8123  -13.2754   19.6239 H   0  0  0  0  0  0  0  0  0  0  0  0
   -9.0010  -10.7665   18.8412 H   0  0  0  0  0  0  0  0  0  0  0  0
   -7.5761  -11.2714   17.4269 H   0  0  0  0  0  0  0  0  0  0  0  0
   -7.6575   -8.7277   17.3799 H   0  0  0  0  0  0  0  0  0  0  0  0
   -9.1856   -8.6051   18.3766 H   0  0  0  0  0  0  0  0  0  0  0  0
   -7.5833   -6.8269   18.1013 H   0  0  0  0  0  0  0  0  0  0  0  0
   -9.6490   -6.2807   18.8654 H   0  0  0  0  0  0  0  0  0  0  0  0
   -9.4589   -7.0725   20.4280 H   0  0  0  0  0  0  0  0  0  0  0  0
   -8.8838   -4.8222   20.9911 H   0  0  0  0  0  0  0  0  0  0  0  0
   -8.1169   -4.5523   19.4119 H   0  0  0  0  0  0  0  0  0  0  0  0
   -6.1899   -5.0015   20.7636 H   0  0  0  0  0  0  0  0  0  0  0  0
   -7.0617   -6.1964   21.7385 H   0  0  0  0  0  0  0  0  0  0  0  0
   -5.8549   -6.5401   19.1681 H   0  0  0  0  0  0  0  0  0  0  0  0
  1  2  1  0
  2  3  1  0
  3  4  1  0
  4  5  1  0
  5  6  1  0
  6  7  1  0
  7  8  1  0
  8  9  1  0
  2 10  1  0
 10 11  1  0
 10 12  1  0
 12 13  2  0
 12 14  1  0
 14 15  1  0
 15 16  1  0
 16 17  1  0
 17 18  1  0
 18 19  1  0
 19 20  1  0
  9  4  1  0
 20 16  1  0
  1 21  1  0
  1 22  1  0
  1 23  1  0
  2 24  1  0
  3 25  1  0
  3 26  1  0
  5 27  1  0
  5 28  1  0
  6 29  1  0
  6 30  1  0
  7 31  1  0
  7 32  1  0
  8 33  1  0
  8 34  1  0
  9 35  1  0
  9 36  1  0
 11 37  1  0
 11 38  1  0
 11 39  1  0
 14 40  1  0
 14 41  1  0
 15 42  1  0
 15 43  1  0
 16 44  1  0
 17 45  1  0
 17 46  1  0
 18 47  1  0
 18 48  1  0
 19 49  1  0
 19 50  1  0
 20 51  1  0
M  END
>  <Energy>  (885) 
1003.8136872158789

>  <compound_id>  (885) 
5957

>  <target_id>  (885) 
1

>  <reference_id>  (885) 
70

>  <inspiration_ids>  (885) 
[70, 9]

>  <energy_score>  (885) 
953.2675255882879

>  <distance_score>  (885) 
11.495730074807376

>  <path>  (885) 
/opt/xchem-fragalysis-2/maxwin/BulkDock/SCRATCH/511018/C5957-P70/C5957-P70.minimised.mol

>  <scratch_subdir>  (885) 
/opt/xchem-fragalysis-2/maxwin/BulkDock/SCRATCH/511018/C5957-P70

>  <fragmenstein_runtime>  (885) 
27.05610680580139

>  <fragmenstein_outcome>  (885) 
too moved

>  <fragmenstein_mode>  (885) 
expansion

>  <fragmenstein_error>  (885) 


$$$$
C5957-P9
     RDKit          3D

 51 52  0  0  0  0  0  0  0  0999 V2000
  -14.1637  -19.0715   19.1398 C   0  0  0  0  0  0  0  0  0  0  0  0
  -12.2233  -19.0534   19.2058 C   0  0  0  0  0  0  0  0  0  0  0  0
  -13.0271  -21.0251   18.9437 C   0  0  0  0  0  0  0  0  0  0  0  0
  -13.3531  -22.8191   17.9984 N   0  0  0  0  0  0  0  0  0  0  0  0
  -14.1941  -23.3776   16.4957 C   0  0  0  0  0  0  0  0  0  0  0  0
  -14.0528  -24.7216   15.6554 C   0  0  0  0  0  0  0  0  0  0  0  0
  -14.1597  -25.9703   16.4785 C   0  0  0  0  0  0  0  0  0  0  0  0
  -13.2928  -25.8017   17.6946 C   0  0  0  0  0  0  0  0  0  0  0  0
  -13.6696  -24.4805   18.4984 C   0  0  0  0  0  0  0  0  0  0  0  0
  -11.5476  -16.9871   18.8932 N   0  0  0  0  0  0  0  0  0  0  0  0
  -11.2326  -17.5453   17.6869 C   0  0  0  0  0  0  0  0  0  0  0  0
  -10.0409  -15.8123   19.5516 C   0  0  0  0  0  0  0  0  0  0  0  0
   -9.1344  -16.2107   20.2483 O   0  0  0  0  0  0  0  0  0  0  0  0
   -9.8616  -13.6560   19.3527 C   0  0  0  0  0  0  0  0  0  0  0  0
   -9.2441  -11.6566   18.9675 C   0  0  0  0  0  0  0  0  0  0  0  0
   -9.1023   -9.4898   19.2096 C   0  0  0  0  0  0  0  0  0  0  0  0
  -10.4113   -8.5641   18.3895 C   0  0  0  0  0  0  0  0  0  0  0  0
   -9.8238   -7.1822   18.0200 C   0  0  0  0  0  0  0  0  0  0  0  0
   -8.6626   -6.9734   18.9519 C   0  0  0  0  0  0  0  0  0  0  0  0
   -8.9168   -7.9793   19.9839 N   0  0  0  0  0  0  0  0  0  0  0  0
  -14.4828  -19.7637   19.9031 H   0  0  0  0  0  0  0  0  0  0  0  0
  -14.7282  -18.1864   19.4997 H   0  0  0  0  0  0  0  0  0  0  0  0
  -14.5149  -19.2834   18.1288 H   0  0  0  0  0  0  0  0  0  0  0  0
  -12.3072  -19.4278   20.2647 H   0  0  0  0  0  0  0  0  0  0  0  0
  -12.4025  -21.4914   19.7100 H   0  0  0  0  0  0  0  0  0  0  0  0
  -13.0533  -20.5775   17.9747 H   0  0  0  0  0  0  0  0  0  0  0  0
  -15.2361  -23.5738   16.7970 H   0  0  0  0  0  0  0  0  0  0  0  0
  -14.1196  -22.6319   15.7136 H   0  0  0  0  0  0  0  0  0  0  0  0
  -13.1700  -24.7830   15.0139 H   0  0  0  0  0  0  0  0  0  0  0  0
  -14.8827  -24.7281   14.9330 H   0  0  0  0  0  0  0  0  0  0  0  0
  -13.8548  -26.8483   15.8985 H   0  0  0  0  0  0  0  0  0  0  0  0
  -15.2019  -26.1384   16.7768 H   0  0  0  0  0  0  0  0  0  0  0  0
  -12.2450  -25.8861   17.3884 H   0  0  0  0  0  0  0  0  0  0  0  0
  -13.4775  -26.6527   18.3631 H   0  0  0  0  0  0  0  0  0  0  0  0
  -13.3165  -24.6444   19.5256 H   0  0  0  0  0  0  0  0  0  0  0  0
  -14.7250  -24.5277   18.3349 H   0  0  0  0  0  0  0  0  0  0  0  0
  -12.1605  -18.0390   17.2816 H   0  0  0  0  0  0  0  0  0  0  0  0
  -11.5791  -17.2861   16.7189 H   0  0  0  0  0  0  0  0  0  0  0  0
  -10.2790  -18.1396   17.7188 H   0  0  0  0  0  0  0  0  0  0  0  0
  -10.5585  -13.3779   18.6032 H   0  0  0  0  0  0  0  0  0  0  0  0
   -8.7677  -13.7789   19.3798 H   0  0  0  0  0  0  0  0  0  0  0  0
  -10.1119  -11.6345   18.2750 H   0  0  0  0  0  0  0  0  0  0  0  0
   -8.3047  -11.9046   18.4329 H   0  0  0  0  0  0  0  0  0  0  0  0
   -8.1347   -9.2953   18.6985 H   0  0  0  0  0  0  0  0  0  0  0  0
  -11.2620   -8.3641   19.0622 H   0  0  0  0  0  0  0  0  0  0  0  0
  -10.9220   -9.0521   17.5569 H   0  0  0  0  0  0  0  0  0  0  0  0
  -10.5915   -6.4111   18.1519 H   0  0  0  0  0  0  0  0  0  0  0  0
   -9.4959   -7.1424   16.9771 H   0  0  0  0  0  0  0  0  0  0  0  0
   -7.7005   -7.1435   18.4589 H   0  0  0  0  0  0  0  0  0  0  0  0
   -8.6516   -5.9648   19.3751 H   0  0  0  0  0  0  0  0  0  0  0  0
   -9.8165   -7.7047   20.4027 H   0  0  0  0  0  0  0  0  0  0  0  0
  1  2  1  0
  2  3  1  0
  3  4  1  0
  4  5  1  0
  5  6  1  0
  6  7  1  0
  7  8  1  0
  8  9  1  0
  2 10  1  0
 10 11  1  0
 10 12  1  0
 12 13  2  0
 12 14  1  0
 14 15  1  0
 15 16  1  0
 16 17  1  0
 17 18  1  0
 18 19  1  0
 19 20  1  0
  9  4  1  0
 20 16  1  0
  1 21  1  0
  1 22  1  0
  1 23  1  0
  2 24  1  0
  3 25  1  0
  3 26  1  0
  5 27  1  0
  5 28  1  0
  6 29  1  0
  6 30  1  0
  7 31  1  0
  7 32  1  0
  8 33  1  0
  8 34  1  0
  9 35  1  0
  9 36  1  0
 11 37  1  0
 11 38  1  0
 11 39  1  0
 14 40  1  0
 14 41  1  0
 15 42  1  0
 15 43  1  0
 16 44  1  0
 17 45  1  0
 17 46  1  0
 18 47  1  0
 18 48  1  0
 19 49  1  0
 19 50  1  0
 20 51  1  0
M  END
>  <Energy>  (886) 
1516.6504187325456

>  <compound_id>  (886) 
5957

>  <target_id>  (886) 
1

>  <reference_id>  (886) 
9

>  <inspiration_ids>  (886) 
[70, 9]

>  <energy_score>  (886) 
1466.1042571049502

>  <distance_score>  (886) 
11.483648657835934

>  <path>  (886) 
/opt/xchem-fragalysis-2/maxwin/BulkDock/SCRATCH/511018/C5957-P9/C5957-P9.minimised.mol

>  <scratch_subdir>  (886) 
/opt/xchem-fragalysis-2/maxwin/BulkDock/SCRATCH/511018/C5957-P9

>  <fragmenstein_runtime>  (886) 
22.194453477859497

>  <fragmenstein_outcome>  (886) 
too moved

>  <fragmenstein_mode>  (886) 
expansion

>  <fragmenstein_error>  (886) 


$$$$
C5968-P53
     RDKit          3D

 54 57  0  0  0  0  0  0  0  0999 V2000
    8.5647    4.0624   20.0014 O   0  0  0  0  0  0  0  0  0  0  0  0
    8.7891    5.2384   20.0470 C   0  0  0  0  0  0  0  0  0  0  0  0
    7.8477    6.1244   20.8850 C   0  0  0  0  0  0  0  0  0  0  0  0
    8.4498    6.6541   22.1849 C   0  0  0  0  0  0  0  0  0  0  0  0
    8.0104    5.9109   23.4549 C   0  0  0  0  0  0  0  0  0  0  0  0
    8.8182    5.1408   23.9790 O   0  0  0  0  0  0  0  0  0  0  0  0
    6.6751    6.1758   24.0050 C   0  0  0  0  0  0  0  0  0  0  0  0
    5.6207    6.9049   23.4839 C   0  0  0  0  0  0  0  0  0  0  0  0
    4.4646    6.8878   24.3231 C   0  0  0  0  0  0  0  0  0  0  0  0
    4.6704    6.1611   25.4720 C   0  0  0  0  0  0  0  0  0  0  0  0
    6.2498    5.5152   25.5403 S   0  0  0  0  0  0  0  0  0  0  0  0
    9.7943    6.0305   19.3850 N   0  0  0  0  0  0  0  0  0  0  0  0
   10.9148    5.6387   18.5264 C   0  0  0  0  0  0  0  0  0  0  0  0
   10.4927    5.3460   17.0841 C   0  0  0  0  0  0  0  0  0  0  0  0
   11.6609    4.9948   16.1295 C   0  0  0  0  0  0  0  0  0  0  0  0
   12.7574    4.7167   16.5395 O   0  0  0  0  0  0  0  0  0  0  0  0
   11.1654    5.0948   14.7837 N   0  0  0  0  0  0  0  0  0  0  0  0
   11.8757    4.9953   13.4744 C   0  0  0  0  0  0  0  0  0  0  0  0
   10.9460    4.8103   12.3045 C   0  0  0  0  0  0  0  0  0  0  0  0
    9.9619    3.8887   12.9300 C   0  0  0  0  0  0  0  0  0  0  0  0
   10.5907    3.7307   14.3150 C   0  0  0  0  0  0  0  0  0  0  0  0
   11.3322    2.4010   14.4502 C   0  0  0  0  0  0  0  0  0  0  0  0
   12.6055    2.1042   14.2633 N   0  0  0  0  0  0  0  0  0  0  0  0
   12.6983    0.7269   14.3570 C   0  0  0  0  0  0  0  0  0  0  0  0
   13.8133   -0.1203   14.2694 C   0  0  0  0  0  0  0  0  0  0  0  0
   13.6305   -1.5049   14.4174 C   0  0  0  0  0  0  0  0  0  0  0  0
   12.3603   -2.0428   14.6282 C   0  0  0  0  0  0  0  0  0  0  0  0
   11.2364   -1.2153   14.7055 C   0  0  0  0  0  0  0  0  0  0  0  0
   11.4532    0.1614   14.5844 C   0  0  0  0  0  0  0  0  0  0  0  0
   10.6071    1.2360   14.6431 N   0  0  0  0  0  0  0  0  0  0  0  0
    7.5526    6.9707   20.2510 H   0  0  0  0  0  0  0  0  0  0  0  0
    6.9297    5.5557   21.0677 H   0  0  0  0  0  0  0  0  0  0  0  0
    8.1785    7.7091   22.3158 H   0  0  0  0  0  0  0  0  0  0  0  0
    9.5457    6.6292   22.1487 H   0  0  0  0  0  0  0  0  0  0  0  0
    5.6511    7.4207   22.5321 H   0  0  0  0  0  0  0  0  0  0  0  0
    3.5284    7.3823   24.0918 H   0  0  0  0  0  0  0  0  0  0  0  0
    3.9726    5.9814   26.2790 H   0  0  0  0  0  0  0  0  0  0  0  0
    9.6350    7.0083   19.5940 H   0  0  0  0  0  0  0  0  0  0  0  0
   11.3762    4.7639   18.9893 H   0  0  0  0  0  0  0  0  0  0  0  0
   11.6418    6.4571   18.5535 H   0  0  0  0  0  0  0  0  0  0  0  0
    9.9681    6.2219   16.6820 H   0  0  0  0  0  0  0  0  0  0  0  0
    9.7836    4.5105   17.0821 H   0  0  0  0  0  0  0  0  0  0  0  0
   12.3615    5.9751   13.3610 H   0  0  0  0  0  0  0  0  0  0  0  0
   12.7393    4.3195   13.5023 H   0  0  0  0  0  0  0  0  0  0  0  0
   10.4725    5.7510   12.0044 H   0  0  0  0  0  0  0  0  0  0  0  0
   11.4572    4.3830   11.4373 H   0  0  0  0  0  0  0  0  0  0  0  0
    8.9831    4.3777   12.9976 H   0  0  0  0  0  0  0  0  0  0  0  0
    9.8431    2.9530   12.3750 H   0  0  0  0  0  0  0  0  0  0  0  0
    9.7374    3.5995   15.0001 H   0  0  0  0  0  0  0  0  0  0  0  0
   14.8000    0.2982   14.1064 H   0  0  0  0  0  0  0  0  0  0  0  0
   14.4921   -2.1665   14.3624 H   0  0  0  0  0  0  0  0  0  0  0  0
   12.2422   -3.1211   14.7251 H   0  0  0  0  0  0  0  0  0  0  0  0
   10.2424   -1.6292   14.8327 H   0  0  0  0  0  0  0  0  0  0  0  0
    9.6036    1.1750   14.7426 H   0  0  0  0  0  0  0  0  0  0  0  0
  1  2  2  0
  2  3  1  0
  3  4  1  0
  4  5  1  0
  5  6  2  0
  5  7  1  0
  7  8  2  0
  8  9  1  0
  9 10  2  0
 10 11  1  0
  2 12  1  0
 12 13  1  0
 13 14  1  0
 14 15  1  0
 15 16  2  0
 15 17  1  0
 17 18  1  0
 18 19  1  0
 19 20  1  0
 20 21  1  0
 21 22  1  0
 22 23  2  0
 23 24  1  0
 24 25  2  0
 25 26  1  0
 26 27  2  0
 27 28  1  0
 28 29  2  0
 29 30  1  0
 11  7  1  0
 21 17  1  0
 30 22  1  0
 29 24  1  0
  3 31  1  0
  3 32  1  0
  4 33  1  0
  4 34  1  0
  8 35  1  0
  9 36  1  0
 10 37  1  0
 12 38  1  0
 13 39  1  0
 13 40  1  0
 14 41  1  0
 14 42  1  0
 18 43  1  0
 18 44  1  0
 19 45  1  0
 19 46  1  0
 20 47  1  0
 20 48  1  0
 21 49  1  0
 25 50  1  0
 26 51  1  0
 27 52  1  0
 28 53  1  0
 30 54  1  0
M  END
>  <Energy>  (887) 
75.581575878908836

>  <compound_id>  (887) 
5968

>  <target_id>  (887) 
1

>  <reference_id>  (887) 
53

>  <inspiration_ids>  (887) 
[53, 55]

>  <energy_score>  (887) 
27.75963427767215

>  <distance_score>  (887) 
3.98488101891108

>  <path>  (887) 
/opt/xchem-fragalysis-2/maxwin/BulkDock/SCRATCH/511018/C5968-P53/C5968-P53.minimised.mol

>  <scratch_subdir>  (887) 
/opt/xchem-fragalysis-2/maxwin/BulkDock/SCRATCH/511018/C5968-P53

>  <fragmenstein_runtime>  (887) 
6.90553092956543

>  <fragmenstein_outcome>  (887) 
too moved

>  <fragmenstein_mode>  (887) 
expansion

>  <fragmenstein_error>  (887) 


$$$$
C5968-P55
     RDKit          3D

 54 57  0  0  0  0  0  0  0  0999 V2000
    9.4241    2.7256   23.5466 O   0  0  0  0  0  0  0  0  0  0  0  0
   10.2898    3.3657   24.0699 C   0  0  0  0  0  0  0  0  0  0  0  0
    9.9582    4.6776   24.7938 C   0  0  0  0  0  0  0  0  0  0  0  0
    8.4616    5.0099   24.8048 C   0  0  0  0  0  0  0  0  0  0  0  0
    7.6893    4.3421   25.9465 C   0  0  0  0  0  0  0  0  0  0  0  0
    8.2755    3.6147   26.7490 O   0  0  0  0  0  0  0  0  0  0  0  0
    6.2539    4.6378   26.0177 C   0  0  0  0  0  0  0  0  0  0  0  0
    5.4786    5.4608   25.2181 C   0  0  0  0  0  0  0  0  0  0  0  0
    4.1056    5.4769   25.6072 C   0  0  0  0  0  0  0  0  0  0  0  0
    3.8697    4.6674   26.6937 C   0  0  0  0  0  0  0  0  0  0  0  0
    5.2954    3.8969   27.2373 S   0  0  0  0  0  0  0  0  0  0  0  0
   11.7085    3.1327   24.1591 N   0  0  0  0  0  0  0  0  0  0  0  0
   12.5166    2.0079   23.7286 C   0  0  0  0  0  0  0  0  0  0  0  0
   12.7481    1.9437   22.2234 C   0  0  0  0  0  0  0  0  0  0  0  0
   13.8814    2.8348   21.7104 C   0  0  0  0  0  0  0  0  0  0  0  0
   14.5193    3.5237   22.4628 O   0  0  0  0  0  0  0  0  0  0  0  0
   13.9175    2.7359   20.2771 N   0  0  0  0  0  0  0  0  0  0  0  0
   14.6763    3.5338   19.2614 C   0  0  0  0  0  0  0  0  0  0  0  0
   16.1699    3.5411   19.4565 C   0  0  0  0  0  0  0  0  0  0  0  0
   16.3718    2.1042   19.7561 C   0  0  0  0  0  0  0  0  0  0  0  0
   14.9225    1.6469   19.8413 C   0  0  0  0  0  0  0  0  0  0  0  0
   14.4606    0.7870   18.6572 C   0  0  0  0  0  0  0  0  0  0  0  0
   13.8044    1.1441   17.5661 N   0  0  0  0  0  0  0  0  0  0  0  0
   13.4958   -0.0198   16.9002 C   0  0  0  0  0  0  0  0  0  0  0  0
   12.7040   -0.2279   15.7598 C   0  0  0  0  0  0  0  0  0  0  0  0
   12.4398   -1.5430   15.3538 C   0  0  0  0  0  0  0  0  0  0  0  0
   12.9787   -2.6249   16.0536 C   0  0  0  0  0  0  0  0  0  0  0  0
   13.8142   -2.4362   17.1606 C   0  0  0  0  0  0  0  0  0  0  0  0
   14.0351   -1.1157   17.5591 C   0  0  0  0  0  0  0  0  0  0  0  0
   14.6943   -0.5741   18.6345 N   0  0  0  0  0  0  0  0  0  0  0  0
   10.3610    4.6418   25.8122 H   0  0  0  0  0  0  0  0  0  0  0  0
   10.4817    5.4748   24.2507 H   0  0  0  0  0  0  0  0  0  0  0  0
    7.9930    4.7443   23.8510 H   0  0  0  0  0  0  0  0  0  0  0  0
    8.3611    6.0932   24.9469 H   0  0  0  0  0  0  0  0  0  0  0  0
    5.8643    6.0328   24.3827 H   0  0  0  0  0  0  0  0  0  0  0  0
    3.3305    6.0517   25.1139 H   0  0  0  0  0  0  0  0  0  0  0  0
    2.9288    4.4886   27.1972 H   0  0  0  0  0  0  0  0  0  0  0  0
   12.1242    3.8437   24.7515 H   0  0  0  0  0  0  0  0  0  0  0  0
   11.9690    1.1095   24.0351 H   0  0  0  0  0  0  0  0  0  0  0  0
   13.4572    2.0405   24.2870 H   0  0  0  0  0  0  0  0  0  0  0  0
   11.8279    2.2190   21.7021 H   0  0  0  0  0  0  0  0  0  0  0  0
   13.0088    0.9122   21.9659 H   0  0  0  0  0  0  0  0  0  0  0  0
   14.3315    4.5652   19.4221 H   0  0  0  0  0  0  0  0  0  0  0  0
   14.3586    3.3204   18.2339 H   0  0  0  0  0  0  0  0  0  0  0  0
   16.4619    4.1682   20.3058 H   0  0  0  0  0  0  0  0  0  0  0  0
   16.7073    3.8851   18.5686 H   0  0  0  0  0  0  0  0  0  0  0  0
   16.9500    1.5822   18.9871 H   0  0  0  0  0  0  0  0  0  0  0  0
   16.8908    1.9847   20.7139 H   0  0  0  0  0  0  0  0  0  0  0  0
   14.9135    0.9265   20.6759 H   0  0  0  0  0  0  0  0  0  0  0  0
   12.2695    0.6162   15.2358 H   0  0  0  0  0  0  0  0  0  0  0  0
   11.7946   -1.7194   14.4937 H   0  0  0  0  0  0  0  0  0  0  0  0
   12.7324   -3.6365   15.7403 H   0  0  0  0  0  0  0  0  0  0  0  0
   14.2167   -3.2802   17.7096 H   0  0  0  0  0  0  0  0  0  0  0  0
   15.1589   -1.1041   19.3576 H   0  0  0  0  0  0  0  0  0  0  0  0
  1  2  2  0
  2  3  1  0
  3  4  1  0
  4  5  1  0
  5  6  2  0
  5  7  1  0
  7  8  2  0
  8  9  1  0
  9 10  2  0
 10 11  1  0
  2 12  1  0
 12 13  1  0
 13 14  1  0
 14 15  1  0
 15 16  2  0
 15 17  1  0
 17 18  1  0
 18 19  1  0
 19 20  1  0
 20 21  1  0
 21 22  1  0
 22 23  2  0
 23 24  1  0
 24 25  2  0
 25 26  1  0
 26 27  2  0
 27 28  1  0
 28 29  2  0
 29 30  1  0
 11  7  1  0
 21 17  1  0
 30 22  1  0
 29 24  1  0
  3 31  1  0
  3 32  1  0
  4 33  1  0
  4 34  1  0
  8 35  1  0
  9 36  1  0
 10 37  1  0
 12 38  1  0
 13 39  1  0
 13 40  1  0
 14 41  1  0
 14 42  1  0
 18 43  1  0
 18 44  1  0
 19 45  1  0
 19 46  1  0
 20 47  1  0
 20 48  1  0
 21 49  1  0
 25 50  1  0
 26 51  1  0
 27 52  1  0
 28 53  1  0
 30 54  1  0
M  END
>  <Energy>  (888) 
64.911948475509433

>  <compound_id>  (888) 
5968

>  <target_id>  (888) 
1

>  <reference_id>  (888) 
55

>  <inspiration_ids>  (888) 
[53, 55]

>  <energy_score>  (888) 
17.090006874272632

>  <distance_score>  (888) 
3.4718896757328737

>  <path>  (888) 
/opt/xchem-fragalysis-2/maxwin/BulkDock/SCRATCH/511018/C5968-P55/C5968-P55.minimised.mol

>  <scratch_subdir>  (888) 
/opt/xchem-fragalysis-2/maxwin/BulkDock/SCRATCH/511018/C5968-P55

>  <fragmenstein_runtime>  (888) 
5.356168985366821

>  <fragmenstein_outcome>  (888) 
too moved

>  <fragmenstein_mode>  (888) 
expansion

>  <fragmenstein_error>  (888) 


$$$$
C5976-P53
     RDKit          3D

 43 46  0  0  0  0  0  0  0  0999 V2000
   13.9694    5.9926   22.0350 O   0  0  0  0  0  0  0  0  0  0  0  0
   13.1842    5.1437   21.7767 C   0  0  0  0  0  0  0  0  0  0  0  0
   13.5200    4.0813   20.6516 C   0  0  0  0  0  0  0  0  0  0  0  0
   14.8995    4.1452   20.1501 O   0  0  0  0  0  0  0  0  0  0  0  0
   15.3729    3.0123   19.5315 C   0  0  0  0  0  0  0  0  0  0  0  0
   15.9755    3.1377   18.2736 C   0  0  0  0  0  0  0  0  0  0  0  0
   16.2397    1.9897   17.5008 C   0  0  0  0  0  0  0  0  0  0  0  0
   15.8892    0.7183   17.9906 C   0  0  0  0  0  0  0  0  0  0  0  0
   15.4762   -0.3737   17.0600 C   0  0  0  0  0  0  0  0  0  0  0  0
   14.8603   -0.2103   15.8914 N   0  0  0  0  0  0  0  0  0  0  0  0
   14.0655   -1.3242   15.7162 C   0  0  0  0  0  0  0  0  0  0  0  0
   13.0440   -1.5869   14.7864 C   0  0  0  0  0  0  0  0  0  0  0  0
   12.3485   -2.8017   14.8723 C   0  0  0  0  0  0  0  0  0  0  0  0
   12.6739   -3.7389   15.8543 C   0  0  0  0  0  0  0  0  0  0  0  0
   13.6824   -3.4915   16.7923 C   0  0  0  0  0  0  0  0  0  0  0  0
   14.3481   -2.2695   16.6910 C   0  0  0  0  0  0  0  0  0  0  0  0
   15.3381   -1.6909   17.4491 N   0  0  0  0  0  0  0  0  0  0  0  0
   15.5572    0.6095   19.3566 C   0  0  0  0  0  0  0  0  0  0  0  0
   15.2884    1.7537   20.1184 C   0  0  0  0  0  0  0  0  0  0  0  0
   11.8268    4.7928   22.4489 N   0  0  0  0  0  0  0  0  0  0  0  0
   11.1665    5.3620   23.6820 C   0  0  0  0  0  0  0  0  0  0  0  0
    9.6879    5.0373   23.8316 C   0  0  0  0  0  0  0  0  0  0  0  0
    9.2767    5.3368   22.4396 C   0  0  0  0  0  0  0  0  0  0  0  0
   10.6727    5.5547   21.7978 C   0  0  0  0  0  0  0  0  0  0  0  0
   13.2874    3.0953   21.0647 H   0  0  0  0  0  0  0  0  0  0  0  0
   12.8573    4.2900   19.8060 H   0  0  0  0  0  0  0  0  0  0  0  0
   16.1315    4.1254   17.8478 H   0  0  0  0  0  0  0  0  0  0  0  0
   16.5367    2.1024   16.4597 H   0  0  0  0  0  0  0  0  0  0  0  0
   12.7974   -0.8534   14.0267 H   0  0  0  0  0  0  0  0  0  0  0  0
   11.5565   -3.0184   14.1590 H   0  0  0  0  0  0  0  0  0  0  0  0
   12.1402   -4.6879   15.8924 H   0  0  0  0  0  0  0  0  0  0  0  0
   13.9214   -4.2268   17.5553 H   0  0  0  0  0  0  0  0  0  0  0  0
   15.7212   -2.0904   18.2914 H   0  0  0  0  0  0  0  0  0  0  0  0
   15.3280   -0.3527   19.8079 H   0  0  0  0  0  0  0  0  0  0  0  0
   14.9402    1.6379   21.1410 H   0  0  0  0  0  0  0  0  0  0  0  0
   11.7082    4.9007   24.5189 H   0  0  0  0  0  0  0  0  0  0  0  0
   11.3983    6.4362   23.7895 H   0  0  0  0  0  0  0  0  0  0  0  0
    9.1906    5.6499   24.5872 H   0  0  0  0  0  0  0  0  0  0  0  0
    9.5570    3.9802   24.0755 H   0  0  0  0  0  0  0  0  0  0  0  0
    8.7587    4.5037   21.9635 H   0  0  0  0  0  0  0  0  0  0  0  0
    8.6577    6.2338   22.3457 H   0  0  0  0  0  0  0  0  0  0  0  0
   10.6360    5.2077   20.7561 H   0  0  0  0  0  0  0  0  0  0  0  0
   10.9280    6.6254   21.7139 H   0  0  0  0  0  0  0  0  0  0  0  0
  1  2  2  0
  2  3  1  0
  3  4  1  0
  4  5  1  0
  5  6  2  0
  6  7  1  0
  7  8  2  0
  8  9  1  0
  9 10  2  0
 10 11  1  0
 11 12  2  0
 12 13  1  0
 13 14  2  0
 14 15  1  0
 15 16  2  0
 16 17  1  0
  8 18  1  0
 18 19  2  0
  2 20  1  0
 20 21  1  0
 21 22  1  0
 22 23  1  0
 23 24  1  0
 19  5  1  0
 24 20  1  0
 17  9  1  0
 16 11  1  0
  3 25  1  0
  3 26  1  0
  6 27  1  0
  7 28  1  0
 12 29  1  0
 13 30  1  0
 14 31  1  0
 15 32  1  0
 17 33  1  0
 18 34  1  0
 19 35  1  0
 21 36  1  0
 21 37  1  0
 22 38  1  0
 22 39  1  0
 23 40  1  0
 23 41  1  0
 24 42  1  0
 24 43  1  0
M  END
>  <Energy>  (889) 
147.51506344678779

>  <compound_id>  (889) 
5976

>  <target_id>  (889) 
1

>  <reference_id>  (889) 
53

>  <inspiration_ids>  (889) 
[53, 55]

>  <energy_score>  (889) 
72.41577635907993

>  <distance_score>  (889) 
5.327487006633726

>  <path>  (889) 
/opt/xchem-fragalysis-2/maxwin/BulkDock/SCRATCH/511018/C5976-P53/C5976-P53.minimised.mol

>  <scratch_subdir>  (889) 
/opt/xchem-fragalysis-2/maxwin/BulkDock/SCRATCH/511018/C5976-P53

>  <fragmenstein_runtime>  (889) 
4.850809335708618

>  <fragmenstein_outcome>  (889) 
too moved

>  <fragmenstein_mode>  (889) 
expansion

>  <fragmenstein_error>  (889) 


$$$$
C5976-P55
     RDKit          3D

 43 46  0  0  0  0  0  0  0  0999 V2000
   12.2701    6.3610   22.9076 O   0  0  0  0  0  0  0  0  0  0  0  0
   11.9023    5.3096   22.5089 C   0  0  0  0  0  0  0  0  0  0  0  0
   12.4887    4.6311   21.1735 C   0  0  0  0  0  0  0  0  0  0  0  0
   13.8634    4.7936   20.7146 O   0  0  0  0  0  0  0  0  0  0  0  0
   14.1397    3.8578   19.7361 C   0  0  0  0  0  0  0  0  0  0  0  0
   13.8144    4.0976   18.3987 C   0  0  0  0  0  0  0  0  0  0  0  0
   13.8113    3.0398   17.4868 C   0  0  0  0  0  0  0  0  0  0  0  0
   14.1650    1.7546   17.9101 C   0  0  0  0  0  0  0  0  0  0  0  0
   13.8460    0.5939   17.0759 C   0  0  0  0  0  0  0  0  0  0  0  0
   12.9337    0.5348   16.1189 N   0  0  0  0  0  0  0  0  0  0  0  0
   12.6721   -0.8033   15.9407 C   0  0  0  0  0  0  0  0  0  0  0  0
   11.6925   -1.4390   15.1689 C   0  0  0  0  0  0  0  0  0  0  0  0
   11.5432   -2.8242   15.3044 C   0  0  0  0  0  0  0  0  0  0  0  0
   12.3576   -3.5557   16.1731 C   0  0  0  0  0  0  0  0  0  0  0  0
   13.3937   -2.9526   16.8829 C   0  0  0  0  0  0  0  0  0  0  0  0
   13.5056   -1.5736   16.7398 C   0  0  0  0  0  0  0  0  0  0  0  0
   14.3414   -0.6644   17.3243 N   0  0  0  0  0  0  0  0  0  0  0  0
   14.6522    1.5768   19.2222 C   0  0  0  0  0  0  0  0  0  0  0  0
   14.6413    2.6277   20.1357 C   0  0  0  0  0  0  0  0  0  0  0  0
   10.9145    4.2871   23.1370 N   0  0  0  0  0  0  0  0  0  0  0  0
   10.2191    4.2902   24.4793 C   0  0  0  0  0  0  0  0  0  0  0  0
    9.2413    5.4080   24.7940 C   0  0  0  0  0  0  0  0  0  0  0  0
    8.5393    5.4558   23.5015 C   0  0  0  0  0  0  0  0  0  0  0  0
    9.4787    4.5544   22.6851 C   0  0  0  0  0  0  0  0  0  0  0  0
   11.8520    5.0515   20.3859 H   0  0  0  0  0  0  0  0  0  0  0  0
   12.2825    3.5580   21.2781 H   0  0  0  0  0  0  0  0  0  0  0  0
   13.4468    5.0737   18.0966 H   0  0  0  0  0  0  0  0  0  0  0  0
   13.4342    3.2001   16.4790 H   0  0  0  0  0  0  0  0  0  0  0  0
   11.0359   -0.8674   14.5207 H   0  0  0  0  0  0  0  0  0  0  0  0
   10.7628   -3.3290   14.7408 H   0  0  0  0  0  0  0  0  0  0  0  0
   12.1815   -4.6195   16.3084 H   0  0  0  0  0  0  0  0  0  0  0  0
   14.0315   -3.5232   17.5476 H   0  0  0  0  0  0  0  0  0  0  0  0
   15.0616   -0.8884   17.9924 H   0  0  0  0  0  0  0  0  0  0  0  0
   14.9411    0.5994   19.5973 H   0  0  0  0  0  0  0  0  0  0  0  0
   14.9238    2.4610   21.1710 H   0  0  0  0  0  0  0  0  0  0  0  0
    9.7696    3.2953   24.6395 H   0  0  0  0  0  0  0  0  0  0  0  0
   11.0362    4.3508   25.2106 H   0  0  0  0  0  0  0  0  0  0  0  0
    9.7724    6.3453   24.9919 H   0  0  0  0  0  0  0  0  0  0  0  0
    8.5951    5.1807   25.6458 H   0  0  0  0  0  0  0  0  0  0  0  0
    7.5246    5.0476   23.5321 H   0  0  0  0  0  0  0  0  0  0  0  0
    8.4978    6.4726   23.0987 H   0  0  0  0  0  0  0  0  0  0  0  0
    9.5518    4.9897   21.6817 H   0  0  0  0  0  0  0  0  0  0  0  0
    9.0101    3.5668   22.5445 H   0  0  0  0  0  0  0  0  0  0  0  0
  1  2  2  0
  2  3  1  0
  3  4  1  0
  4  5  1  0
  5  6  2  0
  6  7  1  0
  7  8  2  0
  8  9  1  0
  9 10  2  0
 10 11  1  0
 11 12  2  0
 12 13  1  0
 13 14  2  0
 14 15  1  0
 15 16  2  0
 16 17  1  0
  8 18  1  0
 18 19  2  0
  2 20  1  0
 20 21  1  0
 21 22  1  0
 22 23  1  0
 23 24  1  0
 19  5  1  0
 24 20  1  0
 17  9  1  0
 16 11  1  0
  3 25  1  0
  3 26  1  0
  6 27  1  0
  7 28  1  0
 12 29  1  0
 13 30  1  0
 14 31  1  0
 15 32  1  0
 17 33  1  0
 18 34  1  0
 19 35  1  0
 21 36  1  0
 21 37  1  0
 22 38  1  0
 22 39  1  0
 23 40  1  0
 23 41  1  0
 24 42  1  0
 24 43  1  0
M  END
>  <Energy>  (890) 
144.8317304554117

>  <compound_id>  (890) 
5976

>  <target_id>  (890) 
1

>  <reference_id>  (890) 
55

>  <inspiration_ids>  (890) 
[53, 55]

>  <energy_score>  (890) 
69.73244336770333

>  <distance_score>  (890) 
4.656308365046019

>  <path>  (890) 
/opt/xchem-fragalysis-2/maxwin/BulkDock/SCRATCH/511018/C5976-P55/C5976-P55.minimised.mol

>  <scratch_subdir>  (890) 
/opt/xchem-fragalysis-2/maxwin/BulkDock/SCRATCH/511018/C5976-P55

>  <fragmenstein_runtime>  (890) 
3.609949827194214

>  <fragmenstein_outcome>  (890) 
too moved

>  <fragmenstein_mode>  (890) 
expansion

>  <fragmenstein_error>  (890) 


$$$$
C5989-P53
     RDKit          3D

 49 52  0  0  0  0  0  0  0  0999 V2000
   10.3099    7.5142   17.5246 O   0  0  0  0  0  0  0  0  0  0  0  0
   10.5083    6.3062   17.5858 C   0  0  0  0  0  0  0  0  0  0  0  0
   10.5048    5.4030   16.3358 C   0  0  0  0  0  0  0  0  0  0  0  0
   11.6105    5.6766   15.3741 N   0  0  0  0  0  0  0  0  0  0  0  0
   12.9072    5.2716   15.9287 C   0  0  0  0  0  0  0  0  0  0  0  0
   14.0334    4.9244   14.9372 C   0  0  0  0  0  0  0  0  0  0  0  0
   13.8427    3.7063   14.0081 C   0  0  0  0  0  0  0  0  0  0  0  0
   12.6666    2.9065   14.3371 N   0  0  0  0  0  0  0  0  0  0  0  0
   12.6545    1.5345   14.3071 C   0  0  0  0  0  0  0  0  0  0  0  0
   11.5854    0.7658   14.2819 N   0  0  0  0  0  0  0  0  0  0  0  0
   12.0224   -0.5226   14.4598 C   0  0  0  0  0  0  0  0  0  0  0  0
   11.2928   -1.7158   14.5632 C   0  0  0  0  0  0  0  0  0  0  0  0
   11.9817   -2.9067   14.8251 C   0  0  0  0  0  0  0  0  0  0  0  0
   13.3696   -2.9088   14.9785 C   0  0  0  0  0  0  0  0  0  0  0  0
   14.1167   -1.7297   14.8591 C   0  0  0  0  0  0  0  0  0  0  0  0
   13.4022   -0.5585   14.5920 C   0  0  0  0  0  0  0  0  0  0  0  0
   13.7829    0.7511   14.4220 N   0  0  0  0  0  0  0  0  0  0  0  0
   11.3531    3.5091   13.9902 C   0  0  0  0  0  0  0  0  0  0  0  0
   11.3017    5.0515   14.0755 C   0  0  0  0  0  0  0  0  0  0  0  0
   10.6575    5.5946   18.7666 N   0  0  0  0  0  0  0  0  0  0  0  0
    9.7729    4.8841   19.7129 C   0  0  0  0  0  0  0  0  0  0  0  0
    9.2738    5.6781   21.0337 C   0  0  0  0  0  0  0  0  0  0  0  0
    8.1539    5.9540   20.1862 C   0  0  0  0  0  0  0  0  0  0  0  0
    9.0022    5.0177   19.2444 C   0  0  0  0  0  0  0  0  0  0  0  0
    9.5390    5.6077   15.8540 H   0  0  0  0  0  0  0  0  0  0  0  0
   10.4796    4.3487   16.6286 H   0  0  0  0  0  0  0  0  0  0  0  0
   13.2656    6.0997   16.5535 H   0  0  0  0  0  0  0  0  0  0  0  0
   12.7884    4.4309   16.6078 H   0  0  0  0  0  0  0  0  0  0  0  0
   14.2615    5.8041   14.3213 H   0  0  0  0  0  0  0  0  0  0  0  0
   14.9425    4.7505   15.5290 H   0  0  0  0  0  0  0  0  0  0  0  0
   14.7658    3.1178   14.0504 H   0  0  0  0  0  0  0  0  0  0  0  0
   13.7734    4.0436   12.9657 H   0  0  0  0  0  0  0  0  0  0  0  0
   10.2156   -1.7032   14.4386 H   0  0  0  0  0  0  0  0  0  0  0  0
   11.4321   -3.8414   14.9130 H   0  0  0  0  0  0  0  0  0  0  0  0
   13.8776   -3.8492   15.1903 H   0  0  0  0  0  0  0  0  0  0  0  0
   15.1948   -1.7348   14.9737 H   0  0  0  0  0  0  0  0  0  0  0  0
   14.7224    1.0910   14.5236 H   0  0  0  0  0  0  0  0  0  0  0  0
   10.5735    3.0980   14.6443 H   0  0  0  0  0  0  0  0  0  0  0  0
   11.0941    3.2253   12.9611 H   0  0  0  0  0  0  0  0  0  0  0  0
   10.3021    5.3750   13.7548 H   0  0  0  0  0  0  0  0  0  0  0  0
   11.9658    5.4844   13.3167 H   0  0  0  0  0  0  0  0  0  0  0  0
   10.7557    4.7829   20.3324 H   0  0  0  0  0  0  0  0  0  0  0  0
   10.0022    3.6662   19.8275 H   0  0  0  0  0  0  0  0  0  0  0  0
    9.8901    6.5410   21.3029 H   0  0  0  0  0  0  0  0  0  0  0  0
    9.0570    5.0123   21.8746 H   0  0  0  0  0  0  0  0  0  0  0  0
    8.0710    6.9878   19.8407 H   0  0  0  0  0  0  0  0  0  0  0  0
    7.2038    5.5123   20.4937 H   0  0  0  0  0  0  0  0  0  0  0  0
    8.4951    5.4922   18.3058 H   0  0  0  0  0  0  0  0  0  0  0  0
    8.5067    4.0101   18.7694 H   0  0  0  0  0  0  0  0  0  0  0  0
  1  2  2  0
  2  3  1  0
  3  4  1  0
  4  5  1  0
  5  6  1  0
  6  7  1  0
  7  8  1  0
  8  9  1  0
  9 10  2  0
 10 11  1  0
 11 12  2  0
 12 13  1  0
 13 14  2  0
 14 15  1  0
 15 16  2  0
 16 17  1  0
  8 18  1  0
 18 19  1  0
  2 20  1  0
 20 21  1  0
 21 22  1  0
 22 23  1  0
 23 24  1  0
 19  4  1  0
 24 20  1  0
 17  9  1  0
 16 11  1  0
  3 25  1  0
  3 26  1  0
  5 27  1  0
  5 28  1  0
  6 29  1  0
  6 30  1  0
  7 31  1  0
  7 32  1  0
 12 33  1  0
 13 34  1  0
 14 35  1  0
 15 36  1  0
 17 37  1  0
 18 38  1  0
 18 39  1  0
 19 40  1  0
 19 41  1  0
 21 42  1  0
 21 43  1  0
 22 44  1  0
 22 45  1  0
 23 46  1  0
 23 47  1  0
 24 48  1  0
 24 49  1  0
M  END
>  <Energy>  (891) 
595.92650201431104

>  <compound_id>  (891) 
5989

>  <target_id>  (891) 
1

>  <reference_id>  (891) 
53

>  <inspiration_ids>  (891) 
[53, 55]

>  <energy_score>  (891) 
482.068812892036

>  <distance_score>  (891) 
6.2101128171138305

>  <path>  (891) 
/opt/xchem-fragalysis-2/maxwin/BulkDock/SCRATCH/511018/C5989-P53/C5989-P53.minimised.mol

>  <scratch_subdir>  (891) 
/opt/xchem-fragalysis-2/maxwin/BulkDock/SCRATCH/511018/C5989-P53

>  <fragmenstein_runtime>  (891) 
7.104494094848633

>  <fragmenstein_outcome>  (891) 
too moved

>  <fragmenstein_mode>  (891) 
expansion

>  <fragmenstein_error>  (891) 


$$$$
C5989-P55
     RDKit          3D

 49 52  0  0  0  0  0  0  0  0999 V2000
   15.0149    6.9244   21.3106 O   0  0  0  0  0  0  0  0  0  0  0  0
   14.1516    6.0524   21.2819 C   0  0  0  0  0  0  0  0  0  0  0  0
   13.8786    5.2480   20.0010 C   0  0  0  0  0  0  0  0  0  0  0  0
   14.6465    3.9860   20.0100 N   0  0  0  0  0  0  0  0  0  0  0  0
   15.9864    4.0857   19.4306 C   0  0  0  0  0  0  0  0  0  0  0  0
   16.1498    3.9053   17.9097 C   0  0  0  0  0  0  0  0  0  0  0  0
   15.8687    2.4773   17.4230 C   0  0  0  0  0  0  0  0  0  0  0  0
   14.4510    2.2095   17.1907 N   0  0  0  0  0  0  0  0  0  0  0  0
   14.0114    1.0123   16.7150 C   0  0  0  0  0  0  0  0  0  0  0  0
   12.8858    0.7795   16.0741 N   0  0  0  0  0  0  0  0  0  0  0  0
   12.7692   -0.5845   15.9908 C   0  0  0  0  0  0  0  0  0  0  0  0
   11.7545   -1.3680   15.4223 C   0  0  0  0  0  0  0  0  0  0  0  0
   11.8188   -2.7573   15.5802 C   0  0  0  0  0  0  0  0  0  0  0  0
   12.8675   -3.3489   16.2902 C   0  0  0  0  0  0  0  0  0  0  0  0
   13.9183   -2.5868   16.8123 C   0  0  0  0  0  0  0  0  0  0  0  0
   13.8326   -1.2060   16.6326 C   0  0  0  0  0  0  0  0  0  0  0  0
   14.6518   -0.1683   17.0012 N   0  0  0  0  0  0  0  0  0  0  0  0
   13.4697    2.9288   18.0137 C   0  0  0  0  0  0  0  0  0  0  0  0
   13.8489    2.8633   19.5115 C   0  0  0  0  0  0  0  0  0  0  0  0
   13.4215    5.6369   22.3879 N   0  0  0  0  0  0  0  0  0  0  0  0
   11.9221    6.6639   22.4442 C   0  0  0  0  0  0  0  0  0  0  0  0
   10.5948    6.0836   21.8254 C   0  0  0  0  0  0  0  0  0  0  0  0
   10.8546    5.0914   22.8223 C   0  0  0  0  0  0  0  0  0  0  0  0
   12.1599    6.0194   23.0460 C   0  0  0  0  0  0  0  0  0  0  0  0
   12.7991    5.0625   19.9685 H   0  0  0  0  0  0  0  0  0  0  0  0
   14.1087    5.8698   19.1279 H   0  0  0  0  0  0  0  0  0  0  0  0
   16.4370    5.0451   19.7155 H   0  0  0  0  0  0  0  0  0  0  0  0
   16.6109    3.3310   19.9268 H   0  0  0  0  0  0  0  0  0  0  0  0
   15.5549    4.6444   17.3610 H   0  0  0  0  0  0  0  0  0  0  0  0
   17.1996    4.1288   17.6776 H   0  0  0  0  0  0  0  0  0  0  0  0
   16.2931    1.7582   18.1344 H   0  0  0  0  0  0  0  0  0  0  0  0
   16.3985    2.3350   16.4724 H   0  0  0  0  0  0  0  0  0  0  0  0
   10.9338   -0.9043   14.8838 H   0  0  0  0  0  0  0  0  0  0  0  0
   11.0364   -3.3791   15.1496 H   0  0  0  0  0  0  0  0  0  0  0  0
   12.8761   -4.4286   16.4254 H   0  0  0  0  0  0  0  0  0  0  0  0
   14.7437   -3.0506   17.3401 H   0  0  0  0  0  0  0  0  0  0  0  0
   15.5038   -0.2530   17.5288 H   0  0  0  0  0  0  0  0  0  0  0  0
   12.4767    2.4933   17.8771 H   0  0  0  0  0  0  0  0  0  0  0  0
   13.3726    3.9608   17.6581 H   0  0  0  0  0  0  0  0  0  0  0  0
   12.9447    2.8236   20.1242 H   0  0  0  0  0  0  0  0  0  0  0  0
   14.3661    1.9217   19.7387 H   0  0  0  0  0  0  0  0  0  0  0  0
   11.9533    7.8067   22.8600 H   0  0  0  0  0  0  0  0  0  0  0  0
   12.1754    7.2036   21.4404 H   0  0  0  0  0  0  0  0  0  0  0  0
   10.6819    5.7444   20.7909 H   0  0  0  0  0  0  0  0  0  0  0  0
    9.7239    6.7180   22.0032 H   0  0  0  0  0  0  0  0  0  0  0  0
   10.1658    5.1065   23.6722 H   0  0  0  0  0  0  0  0  0  0  0  0
   11.0734    4.0869   22.4478 H   0  0  0  0  0  0  0  0  0  0  0  0
   12.4511    5.1541   23.7717 H   0  0  0  0  0  0  0  0  0  0  0  0
   12.3045    6.5294   24.1744 H   0  0  0  0  0  0  0  0  0  0  0  0
  1  2  2  0
  2  3  1  0
  3  4  1  0
  4  5  1  0
  5  6  1  0
  6  7  1  0
  7  8  1  0
  8  9  1  0
  9 10  2  0
 10 11  1  0
 11 12  2  0
 12 13  1  0
 13 14  2  0
 14 15  1  0
 15 16  2  0
 16 17  1  0
  8 18  1  0
 18 19  1  0
  2 20  1  0
 20 21  1  0
 21 22  1  0
 22 23  1  0
 23 24  1  0
 19  4  1  0
 24 20  1  0
 17  9  1  0
 16 11  1  0
  3 25  1  0
  3 26  1  0
  5 27  1  0
  5 28  1  0
  6 29  1  0
  6 30  1  0
  7 31  1  0
  7 32  1  0
 12 33  1  0
 13 34  1  0
 14 35  1  0
 15 36  1  0
 17 37  1  0
 18 38  1  0
 18 39  1  0
 19 40  1  0
 19 41  1  0
 21 42  1  0
 21 43  1  0
 22 44  1  0
 22 45  1  0
 23 46  1  0
 23 47  1  0
 24 48  1  0
 24 49  1  0
M  END
>  <Energy>  (892) 
600.77665765799122

>  <compound_id>  (892) 
5989

>  <target_id>  (892) 
1

>  <reference_id>  (892) 
55

>  <inspiration_ids>  (892) 
[53, 55]

>  <energy_score>  (892) 
486.91896853571484

>  <distance_score>  (892) 
5.90111070678279

>  <path>  (892) 
/opt/xchem-fragalysis-2/maxwin/BulkDock/SCRATCH/511018/C5989-P55/C5989-P55.minimised.mol

>  <scratch_subdir>  (892) 
/opt/xchem-fragalysis-2/maxwin/BulkDock/SCRATCH/511018/C5989-P55

>  <fragmenstein_runtime>  (892) 
4.798591136932373

>  <fragmenstein_outcome>  (892) 
too moved

>  <fragmenstein_mode>  (892) 
expansion

>  <fragmenstein_error>  (892) 


$$$$
C6007-P53
     RDKit          3D

 50 52  0  0  0  0  0  0  0  0999 V2000
    8.3945    5.6113   18.2806 O   0  0  0  0  0  0  0  0  0  0  0  0
    7.9604    4.6793   18.8596 C   0  0  0  0  0  0  0  0  0  0  0  0
    8.3958    3.2117   18.3373 C   0  0  0  0  0  0  0  0  0  0  0  0
    9.2648    3.2523   16.9975 C   0  0  0  0  0  0  0  0  0  0  0  0
    9.7331    1.9512   16.2979 C   0  0  0  0  0  0  0  0  0  0  0  0
    9.1410    0.7724   16.1986 N   0  0  0  0  0  0  0  0  0  0  0  0
    9.9919   -0.0399   15.4536 C   0  0  0  0  0  0  0  0  0  0  0  0
    9.8705   -1.3789   15.0665 C   0  0  0  0  0  0  0  0  0  0  0  0
   11.0073   -2.0906   14.6496 C   0  0  0  0  0  0  0  0  0  0  0  0
   12.2277   -1.4421   14.5022 C   0  0  0  0  0  0  0  0  0  0  0  0
   12.3227   -0.0564   14.6947 C   0  0  0  0  0  0  0  0  0  0  0  0
   11.1756    0.6131   15.1630 C   0  0  0  0  0  0  0  0  0  0  0  0
   10.8904    1.9174   15.5128 N   0  0  0  0  0  0  0  0  0  0  0  0
    7.0392    4.6108   20.1600 N   0  0  0  0  0  0  0  0  0  0  0  0
    6.5504    5.7059   21.0660 C   0  0  0  0  0  0  0  0  0  0  0  0
    5.0696    5.9314   21.6408 C   0  0  0  0  0  0  0  0  0  0  0  0
    3.8251    5.5469   20.8363 C   0  0  0  0  0  0  0  0  0  0  0  0
    2.6979    5.1599   21.8506 C   0  0  0  0  0  0  0  0  0  0  0  0
    3.3102    4.8240   23.1555 N   0  0  0  0  0  0  0  0  0  0  0  0
    2.3163    4.9601   24.3607 C   0  0  0  0  0  0  0  0  0  0  0  0
    1.1346    3.8917   24.5429 C   0  0  0  0  0  0  0  0  0  0  0  0
    0.0805    4.1547   25.6670 C   0  0  0  0  0  0  0  0  0  0  0  0
   -0.9357    3.1409   25.6684 O   0  0  0  0  0  0  0  0  0  0  0  0
    4.5369    5.7142   23.1542 C   0  0  0  0  0  0  0  0  0  0  0  0
    7.4982    2.6226   18.1460 H   0  0  0  0  0  0  0  0  0  0  0  0
    8.9737    2.7330   19.1341 H   0  0  0  0  0  0  0  0  0  0  0  0
   10.1098    3.9317   17.1463 H   0  0  0  0  0  0  0  0  0  0  0  0
    8.6380    3.7598   16.2493 H   0  0  0  0  0  0  0  0  0  0  0  0
    8.8992   -1.8547   15.1122 H   0  0  0  0  0  0  0  0  0  0  0  0
   10.9242   -3.1501   14.4203 H   0  0  0  0  0  0  0  0  0  0  0  0
   13.0987   -2.0025   14.1705 H   0  0  0  0  0  0  0  0  0  0  0  0
   13.2558    0.4682   14.5211 H   0  0  0  0  0  0  0  0  0  0  0  0
   11.5165    2.7018   15.4214 H   0  0  0  0  0  0  0  0  0  0  0  0
    6.9177    3.6443   20.4403 H   0  0  0  0  0  0  0  0  0  0  0  0
    7.2422    5.7085   21.9170 H   0  0  0  0  0  0  0  0  0  0  0  0
    6.7947    6.6145   20.4991 H   0  0  0  0  0  0  0  0  0  0  0  0
    5.0528    7.0361   21.6130 H   0  0  0  0  0  0  0  0  0  0  0  0
    3.4843    6.4036   20.2405 H   0  0  0  0  0  0  0  0  0  0  0  0
    4.0231    4.7642   20.1119 H   0  0  0  0  0  0  0  0  0  0  0  0
    2.0280    6.0226   21.9570 H   0  0  0  0  0  0  0  0  0  0  0  0
    2.1083    4.3204   21.4686 H   0  0  0  0  0  0  0  0  0  0  0  0
    2.9327    4.9049   25.2658 H   0  0  0  0  0  0  0  0  0  0  0  0
    1.8803    5.9654   24.3223 H   0  0  0  0  0  0  0  0  0  0  0  0
    1.5888    2.9080   24.7087 H   0  0  0  0  0  0  0  0  0  0  0  0
    0.5969    3.8132   23.5896 H   0  0  0  0  0  0  0  0  0  0  0  0
   -0.3986    5.1243   25.4974 H   0  0  0  0  0  0  0  0  0  0  0  0
    0.5664    4.1608   26.6471 H   0  0  0  0  0  0  0  0  0  0  0  0
   -1.6834    3.4926   26.1886 H   0  0  0  0  0  0  0  0  0  0  0  0
    4.2300    6.6989   23.5351 H   0  0  0  0  0  0  0  0  0  0  0  0
    5.3195    5.3629   23.8282 H   0  0  0  0  0  0  0  0  0  0  0  0
  1  2  2  0
  2  3  1  0
  3  4  1  0
  4  5  1  0
  5  6  2  0
  6  7  1  0
  7  8  2  0
  8  9  1  0
  9 10  2  0
 10 11  1  0
 11 12  2  0
 12 13  1  0
  2 14  1  0
 14 15  1  0
 15 16  1  0
 16 17  1  0
 17 18  1  0
 18 19  1  0
 19 20  1  0
 20 21  1  0
 21 22  1  0
 22 23  1  0
 19 24  1  0
 13  5  1  0
 24 16  1  0
 12  7  1  0
  3 25  1  0
  3 26  1  0
  4 27  1  0
  4 28  1  0
  8 29  1  0
  9 30  1  0
 10 31  1  0
 11 32  1  0
 13 33  1  0
 14 34  1  0
 15 35  1  0
 15 36  1  0
 16 37  1  0
 17 38  1  0
 17 39  1  0
 18 40  1  0
 18 41  1  0
 20 42  1  0
 20 43  1  0
 21 44  1  0
 21 45  1  0
 22 46  1  0
 22 47  1  0
 23 48  1  0
 24 49  1  0
 24 50  1  0
M  END
>  <Energy>  (893) 
71.615447422533492

>  <compound_id>  (893) 
6007

>  <target_id>  (893) 
1

>  <reference_id>  (893) 
53

>  <inspiration_ids>  (893) 
[53, 55]

>  <energy_score>  (893) 
53.17169889822247

>  <distance_score>  (893) 
5.508732001405618

>  <path>  (893) 
/opt/xchem-fragalysis-2/maxwin/BulkDock/SCRATCH/511018/C6007-P53/C6007-P53.minimised.mol

>  <scratch_subdir>  (893) 
/opt/xchem-fragalysis-2/maxwin/BulkDock/SCRATCH/511018/C6007-P53

>  <fragmenstein_runtime>  (893) 
13.341657400131226

>  <fragmenstein_outcome>  (893) 
too moved

>  <fragmenstein_mode>  (893) 
expansion

>  <fragmenstein_error>  (893) 


$$$$
C6007-P55
     RDKit          3D

 50 52  0  0  0  0  0  0  0  0999 V2000
   12.6439    4.3135   23.9683 O   0  0  0  0  0  0  0  0  0  0  0  0
   11.8505    4.1925   23.0796 C   0  0  0  0  0  0  0  0  0  0  0  0
   12.2783    3.5533   21.7425 C   0  0  0  0  0  0  0  0  0  0  0  0
   13.7582    3.1578   21.6053 C   0  0  0  0  0  0  0  0  0  0  0  0
   14.0360    2.2970   20.3936 C   0  0  0  0  0  0  0  0  0  0  0  0
   13.8583    2.6102   19.1224 N   0  0  0  0  0  0  0  0  0  0  0  0
   14.1033    1.4585   18.4028 C   0  0  0  0  0  0  0  0  0  0  0  0
   13.9410    1.1904   17.0331 C   0  0  0  0  0  0  0  0  0  0  0  0
   14.1944   -0.1059   16.5601 C   0  0  0  0  0  0  0  0  0  0  0  0
   14.6249   -1.1110   17.4292 C   0  0  0  0  0  0  0  0  0  0  0  0
   14.8093   -0.8587   18.7952 C   0  0  0  0  0  0  0  0  0  0  0  0
   14.5217    0.4351   19.2442 C   0  0  0  0  0  0  0  0  0  0  0  0
   14.5045    1.0020   20.4977 N   0  0  0  0  0  0  0  0  0  0  0  0
   10.4292    4.5106   23.0251 N   0  0  0  0  0  0  0  0  0  0  0  0
    9.5540    5.1632   24.0022 C   0  0  0  0  0  0  0  0  0  0  0  0
    8.0741    4.7501   23.8963 C   0  0  0  0  0  0  0  0  0  0  0  0
    7.2427    5.4725   22.8290 C   0  0  0  0  0  0  0  0  0  0  0  0
    5.8251    5.6218   23.4237 C   0  0  0  0  0  0  0  0  0  0  0  0
    5.8402    4.8390   24.6646 N   0  0  0  0  0  0  0  0  0  0  0  0
    4.7800    5.1949   25.6441 C   0  0  0  0  0  0  0  0  0  0  0  0
    3.3488    4.7421   25.2515 C   0  0  0  0  0  0  0  0  0  0  0  0
    2.2907    5.0276   26.3242 C   0  0  0  0  0  0  0  0  0  0  0  0
    1.0539    4.4192   25.9505 O   0  0  0  0  0  0  0  0  0  0  0  0
    7.2256    4.9924   25.1647 C   0  0  0  0  0  0  0  0  0  0  0  0
   12.0432    4.2792   20.9578 H   0  0  0  0  0  0  0  0  0  0  0  0
   11.6647    2.6547   21.6242 H   0  0  0  0  0  0  0  0  0  0  0  0
   14.0807    2.6256   22.5088 H   0  0  0  0  0  0  0  0  0  0  0  0
   14.3736    4.0632   21.5433 H   0  0  0  0  0  0  0  0  0  0  0  0
   13.5991    1.9751   16.3677 H   0  0  0  0  0  0  0  0  0  0  0  0
   14.0552   -0.3265   15.5043 H   0  0  0  0  0  0  0  0  0  0  0  0
   14.8158   -2.1091   17.0400 H   0  0  0  0  0  0  0  0  0  0  0  0
   15.1219   -1.6441   19.4751 H   0  0  0  0  0  0  0  0  0  0  0  0
   14.6972    0.5163   21.3618 H   0  0  0  0  0  0  0  0  0  0  0  0
   10.0539    4.1996   22.1365 H   0  0  0  0  0  0  0  0  0  0  0  0
    9.9497    4.9073   24.9912 H   0  0  0  0  0  0  0  0  0  0  0  0
    9.6745    6.2437   23.8729 H   0  0  0  0  0  0  0  0  0  0  0  0
    8.0604    3.6808   23.6671 H   0  0  0  0  0  0  0  0  0  0  0  0
    7.6542    6.4603   22.5942 H   0  0  0  0  0  0  0  0  0  0  0  0
    7.2194    4.8868   21.9040 H   0  0  0  0  0  0  0  0  0  0  0  0
    5.6288    6.6832   23.6195 H   0  0  0  0  0  0  0  0  0  0  0  0
    5.0662    5.2542   22.7261 H   0  0  0  0  0  0  0  0  0  0  0  0
    4.7881    6.2750   25.8361 H   0  0  0  0  0  0  0  0  0  0  0  0
    5.0244    4.7027   26.5940 H   0  0  0  0  0  0  0  0  0  0  0  0
    3.3315    3.6682   25.0576 H   0  0  0  0  0  0  0  0  0  0  0  0
    3.0452    5.2211   24.3128 H   0  0  0  0  0  0  0  0  0  0  0  0
    2.1364    6.1062   26.4298 H   0  0  0  0  0  0  0  0  0  0  0  0
    2.5944    4.6136   27.2906 H   0  0  0  0  0  0  0  0  0  0  0  0
    0.3769    4.7521   26.5673 H   0  0  0  0  0  0  0  0  0  0  0  0
    7.3968    5.9988   25.5672 H   0  0  0  0  0  0  0  0  0  0  0  0
    7.4544    4.2527   25.9385 H   0  0  0  0  0  0  0  0  0  0  0  0
  1  2  2  0
  2  3  1  0
  3  4  1  0
  4  5  1  0
  5  6  2  0
  6  7  1  0
  7  8  2  0
  8  9  1  0
  9 10  2  0
 10 11  1  0
 11 12  2  0
 12 13  1  0
  2 14  1  0
 14 15  1  0
 15 16  1  0
 16 17  1  0
 17 18  1  0
 18 19  1  0
 19 20  1  0
 20 21  1  0
 21 22  1  0
 22 23  1  0
 19 24  1  0
 13  5  1  0
 24 16  1  0
 12  7  1  0
  3 25  1  0
  3 26  1  0
  4 27  1  0
  4 28  1  0
  8 29  1  0
  9 30  1  0
 10 31  1  0
 11 32  1  0
 13 33  1  0
 14 34  1  0
 15 35  1  0
 15 36  1  0
 16 37  1  0
 17 38  1  0
 17 39  1  0
 18 40  1  0
 18 41  1  0
 20 42  1  0
 20 43  1  0
 21 44  1  0
 21 45  1  0
 22 46  1  0
 22 47  1  0
 23 48  1  0
 24 49  1  0
 24 50  1  0
M  END
>  <Energy>  (894) 
3.5923045210736042

>  <compound_id>  (894) 
6007

>  <target_id>  (894) 
1

>  <reference_id>  (894) 
55

>  <inspiration_ids>  (894) 
[53, 55]

>  <energy_score>  (894) 
-17.085378668283568

>  <distance_score>  (894) 
5.766364160963079

>  <path>  (894) 
/opt/xchem-fragalysis-2/maxwin/BulkDock/SCRATCH/511018/C6007-P55/C6007-P55.minimised.mol

>  <scratch_subdir>  (894) 
/opt/xchem-fragalysis-2/maxwin/BulkDock/SCRATCH/511018/C6007-P55

>  <fragmenstein_runtime>  (894) 
17.318122625350952

>  <fragmenstein_outcome>  (894) 
too moved

>  <fragmenstein_mode>  (894) 
expansion

>  <fragmenstein_error>  (894) 


$$$$
C6024-P124
     RDKit          3D

 46 48  0  0  0  0  0  0  0  0999 V2000
    4.0367  -15.0106   15.3853 C   0  0  0  0  0  0  0  0  0  0  0  0
    4.1611  -14.9291   16.9070 C   0  0  0  0  0  0  0  0  0  0  0  0
    4.6474  -13.4166   17.3499 C   0  0  0  0  0  0  0  0  0  0  0  0
    5.8060  -12.7650   16.6392 N   0  0  0  0  0  0  0  0  0  0  0  0
    5.9951  -11.3486   17.0152 C   0  0  0  0  0  0  0  0  0  0  0  0
    7.3499  -10.9864   16.4187 C   0  0  0  0  0  0  0  0  0  0  0  0
    8.1372  -12.2850   16.4980 C   0  0  0  0  0  0  0  0  0  0  0  0
    7.1194  -13.3511   16.9338 C   0  0  0  0  0  0  0  0  0  0  0  0
    2.8663  -15.5193   17.4998 N   0  0  0  0  0  0  0  0  0  0  0  0
    2.5365  -16.9747   17.9890 C   0  0  0  0  0  0  0  0  0  0  0  0
    3.2471  -17.9116   18.0692 O   0  0  0  0  0  0  0  0  0  0  0  0
    1.0643  -16.8083   18.4307 N   0  0  0  0  0  0  0  0  0  0  0  0
    0.1848  -17.7119   19.1476 C   0  0  0  0  0  0  0  0  0  0  0  0
   -1.1405  -17.3412   19.4419 C   0  0  0  0  0  0  0  0  0  0  0  0
   -1.9822  -18.0525   20.3812 C   0  0  0  0  0  0  0  0  0  0  0  0
   -1.5183  -19.1583   21.0840 C   0  0  0  0  0  0  0  0  0  0  0  0
   -2.2614  -19.8502   22.1840 C   0  0  0  0  0  0  0  0  0  0  0  0
   -1.6296  -20.3047   23.3505 C   0  0  0  0  0  0  0  0  0  0  0  0
   -2.3644  -20.9504   24.3528 C   0  0  0  0  0  0  0  0  0  0  0  0
   -3.7148  -21.1742   24.1564 C   0  0  0  0  0  0  0  0  0  0  0  0
   -4.2769  -20.7033   22.9794 C   0  0  0  0  0  0  0  0  0  0  0  0
   -3.6021  -20.0163   22.0223 N   0  0  0  0  0  0  0  0  0  0  0  0
   -0.2724  -19.5556   20.7557 N   0  0  0  0  0  0  0  0  0  0  0  0
    0.5843  -18.8301   19.7696 N   0  0  0  0  0  0  0  0  0  0  0  0
    4.9764  -14.7474   14.8909 H   0  0  0  0  0  0  0  0  0  0  0  0
    3.7693  -16.0253   15.0703 H   0  0  0  0  0  0  0  0  0  0  0  0
    3.2545  -14.3350   15.0229 H   0  0  0  0  0  0  0  0  0  0  0  0
    4.9524  -15.6205   17.2210 H   0  0  0  0  0  0  0  0  0  0  0  0
    3.7682  -12.7805   17.1859 H   0  0  0  0  0  0  0  0  0  0  0  0
    4.8322  -13.4254   18.4294 H   0  0  0  0  0  0  0  0  0  0  0  0
    6.0562  -11.2408   18.1035 H   0  0  0  0  0  0  0  0  0  0  0  0
    5.1999  -10.7086   16.6222 H   0  0  0  0  0  0  0  0  0  0  0  0
    7.8364  -10.1717   16.9635 H   0  0  0  0  0  0  0  0  0  0  0  0
    7.2391  -10.6804   15.3718 H   0  0  0  0  0  0  0  0  0  0  0  0
    8.5667  -12.5269   15.5195 H   0  0  0  0  0  0  0  0  0  0  0  0
    8.9572  -12.2137   17.2202 H   0  0  0  0  0  0  0  0  0  0  0  0
    7.2348  -13.5479   18.0074 H   0  0  0  0  0  0  0  0  0  0  0  0
    7.2728  -14.2911   16.3946 H   0  0  0  0  0  0  0  0  0  0  0  0
    2.0247  -14.9787   17.4744 H   0  0  0  0  0  0  0  0  0  0  0  0
    0.7317  -15.9140   18.1442 H   0  0  0  0  0  0  0  0  0  0  0  0
   -1.5564  -16.4489   18.9804 H   0  0  0  0  0  0  0  0  0  0  0  0
   -2.9855  -17.6798   20.5753 H   0  0  0  0  0  0  0  0  0  0  0  0
   -0.5596  -20.1578   23.4772 H   0  0  0  0  0  0  0  0  0  0  0  0
   -1.8676  -21.3026   25.2519 H   0  0  0  0  0  0  0  0  0  0  0  0
   -4.2965  -21.7237   24.8848 H   0  0  0  0  0  0  0  0  0  0  0  0
   -5.3186  -20.8852   22.7337 H   0  0  0  0  0  0  0  0  0  0  0  0
  1  2  1  0
  2  3  1  0
  3  4  1  0
  4  5  1  0
  5  6  1  0
  6  7  1  0
  7  8  1  0
  2  9  1  0
  9 10  1  0
 10 11  2  0
 10 12  1  0
 12 13  1  0
 13 14  2  0
 14 15  1  0
 15 16  2  0
 16 17  1  0
 17 18  2  0
 18 19  1  0
 19 20  2  0
 20 21  1  0
 21 22  2  0
 16 23  1  0
 23 24  2  0
  8  4  1  0
 24 13  1  0
 22 17  1  0
  1 25  1  0
  1 26  1  0
  1 27  1  0
  2 28  1  0
  3 29  1  0
  3 30  1  0
  5 31  1  0
  5 32  1  0
  6 33  1  0
  6 34  1  0
  7 35  1  0
  7 36  1  0
  8 37  1  0
  8 38  1  0
  9 39  1  0
 12 40  1  0
 14 41  1  0
 15 42  1  0
 18 43  1  0
 19 44  1  0
 20 45  1  0
 21 46  1  0
M  END
>  <Energy>  (895) 
49.283887982905163

>  <compound_id>  (895) 
6024

>  <target_id>  (895) 
1

>  <reference_id>  (895) 
124

>  <inspiration_ids>  (895) 
[124, 49]

>  <energy_score>  (895) 
-6.247294673723587

>  <distance_score>  (895) 
14.707795812516737

>  <path>  (895) 
/opt/xchem-fragalysis-2/maxwin/BulkDock/SCRATCH/511018/C6024-P124/C6024-P124.minimised.mol

>  <scratch_subdir>  (895) 
/opt/xchem-fragalysis-2/maxwin/BulkDock/SCRATCH/511018/C6024-P124

>  <fragmenstein_runtime>  (895) 
37.3094048500061

>  <fragmenstein_outcome>  (895) 
too moved

>  <fragmenstein_mode>  (895) 
expansion

>  <fragmenstein_error>  (895) 


$$$$
C6024-P49
     RDKit          3D

 46 48  0  0  0  0  0  0  0  0999 V2000
    8.1136   -8.8139   25.9373 C   0  0  0  0  0  0  0  0  0  0  0  0
    6.8574   -8.3261   25.2187 C   0  0  0  0  0  0  0  0  0  0  0  0
    7.1683   -7.9732   23.6821 C   0  0  0  0  0  0  0  0  0  0  0  0
    8.2158   -6.9471   23.3590 N   0  0  0  0  0  0  0  0  0  0  0  0
    9.5672   -7.5126   23.1757 C   0  0  0  0  0  0  0  0  0  0  0  0
   10.3413   -6.4420   22.4037 C   0  0  0  0  0  0  0  0  0  0  0  0
    9.2785   -5.6217   21.6904 C   0  0  0  0  0  0  0  0  0  0  0  0
    7.9626   -6.3020   22.0508 C   0  0  0  0  0  0  0  0  0  0  0  0
    5.7540   -9.3165   25.5221 N   0  0  0  0  0  0  0  0  0  0  0  0
    5.3413  -10.5702   24.8102 C   0  0  0  0  0  0  0  0  0  0  0  0
    5.7321  -11.0343   23.7998 O   0  0  0  0  0  0  0  0  0  0  0  0
    4.2394  -11.2210   25.8876 N   0  0  0  0  0  0  0  0  0  0  0  0
    3.3128  -12.6845   25.8097 C   0  0  0  0  0  0  0  0  0  0  0  0
    3.4341  -14.1041   25.9428 C   0  0  0  0  0  0  0  0  0  0  0  0
    2.4017  -15.3706   25.7713 C   0  0  0  0  0  0  0  0  0  0  0  0
    1.1599  -15.3583   26.4252 C   0  0  0  0  0  0  0  0  0  0  0  0
   -0.0798  -16.3191   26.7525 C   0  0  0  0  0  0  0  0  0  0  0  0
   -0.2913  -17.5819   26.1920 C   0  0  0  0  0  0  0  0  0  0  0  0
   -1.3934  -18.3609   26.6020 C   0  0  0  0  0  0  0  0  0  0  0  0
   -2.2793  -17.8789   27.5585 C   0  0  0  0  0  0  0  0  0  0  0  0
   -2.0291  -16.6210   28.0649 C   0  0  0  0  0  0  0  0  0  0  0  0
   -0.9727  -15.8469   27.6878 N   0  0  0  0  0  0  0  0  0  0  0  0
    1.2551  -14.1397   26.9634 N   0  0  0  0  0  0  0  0  0  0  0  0
    2.1027  -12.8652   26.3268 N   0  0  0  0  0  0  0  0  0  0  0  0
    8.8772   -8.0330   25.9777 H   0  0  0  0  0  0  0  0  0  0  0  0
    8.5335   -9.6958   25.4419 H   0  0  0  0  0  0  0  0  0  0  0  0
    7.8877   -9.0931   26.9727 H   0  0  0  0  0  0  0  0  0  0  0  0
    6.5259   -7.3984   25.7014 H   0  0  0  0  0  0  0  0  0  0  0  0
    6.2148   -7.5946   23.2936 H   0  0  0  0  0  0  0  0  0  0  0  0
    7.3627   -8.9030   23.1327 H   0  0  0  0  0  0  0  0  0  0  0  0
    9.5359   -8.4339   22.5799 H   0  0  0  0  0  0  0  0  0  0  0  0
   10.0608   -7.7353   24.1245 H   0  0  0  0  0  0  0  0  0  0  0  0
   10.9088   -5.8023   23.0893 H   0  0  0  0  0  0  0  0  0  0  0  0
   11.0476   -6.8928   21.6993 H   0  0  0  0  0  0  0  0  0  0  0  0
    9.2941   -4.5898   22.0600 H   0  0  0  0  0  0  0  0  0  0  0  0
    9.4374   -5.5962   20.6078 H   0  0  0  0  0  0  0  0  0  0  0  0
    7.1426   -5.5793   22.1112 H   0  0  0  0  0  0  0  0  0  0  0  0
    7.7124   -7.0490   21.2859 H   0  0  0  0  0  0  0  0  0  0  0  0
    5.1548   -9.1751   26.3240 H   0  0  0  0  0  0  0  0  0  0  0  0
    4.0469  -10.5569   26.6104 H   0  0  0  0  0  0  0  0  0  0  0  0
    3.8675  -14.3412   26.9343 H   0  0  0  0  0  0  0  0  0  0  0  0
    2.7445  -16.2898   25.2908 H   0  0  0  0  0  0  0  0  0  0  0  0
    0.3958  -17.9720   25.4450 H   0  0  0  0  0  0  0  0  0  0  0  0
   -1.5445  -19.3441   26.1627 H   0  0  0  0  0  0  0  0  0  0  0  0
   -3.1305  -18.4592   27.8939 H   0  0  0  0  0  0  0  0  0  0  0  0
   -2.6796  -16.1768   28.8136 H   0  0  0  0  0  0  0  0  0  0  0  0
  1  2  1  0
  2  3  1  0
  3  4  1  0
  4  5  1  0
  5  6  1  0
  6  7  1  0
  7  8  1  0
  2  9  1  0
  9 10  1  0
 10 11  2  0
 10 12  1  0
 12 13  1  0
 13 14  2  0
 14 15  1  0
 15 16  2  0
 16 17  1  0
 17 18  2  0
 18 19  1  0
 19 20  2  0
 20 21  1  0
 21 22  2  0
 16 23  1  0
 23 24  2  0
  8  4  1  0
 24 13  1  0
 22 17  1  0
  1 25  1  0
  1 26  1  0
  1 27  1  0
  2 28  1  0
  3 29  1  0
  3 30  1  0
  5 31  1  0
  5 32  1  0
  6 33  1  0
  6 34  1  0
  7 35  1  0
  7 36  1  0
  8 37  1  0
  8 38  1  0
  9 39  1  0
 12 40  1  0
 14 41  1  0
 15 42  1  0
 18 43  1  0
 19 44  1  0
 20 45  1  0
 21 46  1  0
M  END
>  <Energy>  (896) 
237.73156765115334

>  <compound_id>  (896) 
6024

>  <target_id>  (896) 
1

>  <reference_id>  (896) 
49

>  <inspiration_ids>  (896) 
[124, 49]

>  <energy_score>  (896) 
182.20038499451982

>  <distance_score>  (896) 
14.291055756424374

>  <path>  (896) 
/opt/xchem-fragalysis-2/maxwin/BulkDock/SCRATCH/511018/C6024-P49/C6024-P49.minimised.mol

>  <scratch_subdir>  (896) 
/opt/xchem-fragalysis-2/maxwin/BulkDock/SCRATCH/511018/C6024-P49

>  <fragmenstein_runtime>  (896) 
14.739542007446289

>  <fragmenstein_outcome>  (896) 
too moved

>  <fragmenstein_mode>  (896) 
expansion

>  <fragmenstein_error>  (896) 


$$$$
C6025-P124
     RDKit          3D

 45 47  0  0  0  0  0  0  0  0999 V2000
    6.1852  -12.3022   26.2943 C   0  0  0  0  0  0  0  0  0  0  0  0
    5.7173  -12.0919   24.7776 C   0  0  0  0  0  0  0  0  0  0  0  0
    6.6488  -10.8636   24.0529 C   0  0  0  0  0  0  0  0  0  0  0  0
    8.1768  -10.8742   24.0360 N   0  0  0  0  0  0  0  0  0  0  0  0
    8.7554   -9.5381   24.3505 C   0  0  0  0  0  0  0  0  0  0  0  0
   10.1390   -9.5299   23.7188 C   0  0  0  0  0  0  0  0  0  0  0  0
    9.9093  -10.2525   22.4142 C   0  0  0  0  0  0  0  0  0  0  0  0
    8.7864  -11.2459   22.7357 C   0  0  0  0  0  0  0  0  0  0  0  0
    3.8120  -12.7569   24.4397 N   0  0  0  0  0  0  0  0  0  0  0  0
    3.0044  -12.8897   23.1743 C   0  0  0  0  0  0  0  0  0  0  0  0
    3.3132  -12.7175   22.0321 O   0  0  0  0  0  0  0  0  0  0  0  0
    1.4693  -13.4940   23.9130 N   0  0  0  0  0  0  0  0  0  0  0  0
   -0.1073  -14.1714   23.1781 C   0  0  0  0  0  0  0  0  0  0  0  0
   -0.9683  -15.4196   22.1403 C   0  0  0  0  0  0  0  0  0  0  0  0
   -2.1548  -15.9278   22.6504 C   0  0  0  0  0  0  0  0  0  0  0  0
   -2.1602  -15.5435   23.9684 N   0  0  0  0  0  0  0  0  0  0  0  0
   -3.3023  -15.7723   24.9170 C   0  0  0  0  0  0  0  0  0  0  0  0
   -4.5347  -16.1701   24.4142 C   0  0  0  0  0  0  0  0  0  0  0  0
   -5.6311  -16.2233   25.2793 C   0  0  0  0  0  0  0  0  0  0  0  0
   -5.4834  -16.0268   26.6447 C   0  0  0  0  0  0  0  0  0  0  0  0
   -4.2320  -15.6672   27.0800 C   0  0  0  0  0  0  0  0  0  0  0  0
   -3.1769  -15.4830   26.2450 N   0  0  0  0  0  0  0  0  0  0  0  0
   -1.0600  -14.5760   24.2712 N   0  0  0  0  0  0  0  0  0  0  0  0
    5.7979  -13.2423   26.7013 H   0  0  0  0  0  0  0  0  0  0  0  0
    5.9357  -11.4631   26.9501 H   0  0  0  0  0  0  0  0  0  0  0  0
    7.2804  -12.3745   26.3357 H   0  0  0  0  0  0  0  0  0  0  0  0
    6.5008  -12.7429   24.4423 H   0  0  0  0  0  0  0  0  0  0  0  0
    6.3020  -10.8711   23.0337 H   0  0  0  0  0  0  0  0  0  0  0  0
    6.4420   -9.9591   24.6150 H   0  0  0  0  0  0  0  0  0  0  0  0
    8.1767   -8.7146   23.9241 H   0  0  0  0  0  0  0  0  0  0  0  0
    8.8099   -9.3898   25.4336 H   0  0  0  0  0  0  0  0  0  0  0  0
   10.5315   -8.5191   23.5756 H   0  0  0  0  0  0  0  0  0  0  0  0
   10.8447  -10.0906   24.3434 H   0  0  0  0  0  0  0  0  0  0  0  0
   10.8147  -10.7510   22.0549 H   0  0  0  0  0  0  0  0  0  0  0  0
    9.5844   -9.5447   21.6442 H   0  0  0  0  0  0  0  0  0  0  0  0
    8.0764  -11.2872   21.9036 H   0  0  0  0  0  0  0  0  0  0  0  0
    9.2225  -12.2447   22.8454 H   0  0  0  0  0  0  0  0  0  0  0  0
    3.2598  -13.0609   25.2172 H   0  0  0  0  0  0  0  0  0  0  0  0
    1.4982  -13.4315   24.9277 H   0  0  0  0  0  0  0  0  0  0  0  0
   -0.4276  -16.0942   21.4700 H   0  0  0  0  0  0  0  0  0  0  0  0
   -2.7983  -16.7131   22.2842 H   0  0  0  0  0  0  0  0  0  0  0  0
   -4.7057  -16.3386   23.3574 H   0  0  0  0  0  0  0  0  0  0  0  0
   -6.6113  -16.3774   24.8489 H   0  0  0  0  0  0  0  0  0  0  0  0
   -6.3158  -16.1134   27.3331 H   0  0  0  0  0  0  0  0  0  0  0  0
   -4.0295  -15.4718   28.1294 H   0  0  0  0  0  0  0  0  0  0  0  0
  1  2  1  0
  2  3  1  0
  3  4  1  0
  4  5  1  0
  5  6  1  0
  6  7  1  0
  7  8  1  0
  2  9  1  0
  9 10  1  0
 10 11  2  0
 10 12  1  0
 12 13  1  0
 13 14  1  0
 14 15  2  0
 15 16  1  0
 16 17  1  0
 17 18  2  0
 18 19  1  0
 19 20  2  0
 20 21  1  0
 21 22  2  0
 16 23  1  0
  8  4  1  0
 23 13  2  0
 22 17  1  0
  1 24  1  0
  1 25  1  0
  1 26  1  0
  2 27  1  0
  3 28  1  0
  3 29  1  0
  5 30  1  0
  5 31  1  0
  6 32  1  0
  6 33  1  0
  7 34  1  0
  7 35  1  0
  8 36  1  0
  8 37  1  0
  9 38  1  0
 12 39  1  0
 14 40  1  0
 15 41  1  0
 18 42  1  0
 19 43  1  0
 20 44  1  0
 21 45  1  0
M  END
>  <Energy>  (897) 
394.98188034223989

>  <compound_id>  (897) 
6025

>  <target_id>  (897) 
1

>  <reference_id>  (897) 
124

>  <inspiration_ids>  (897) 
[124, 49]

>  <energy_score>  (897) 
345.5847237120399

>  <distance_score>  (897) 
14.01638271989317

>  <path>  (897) 
/opt/xchem-fragalysis-2/maxwin/BulkDock/SCRATCH/511018/C6025-P124/C6025-P124.minimised.mol

>  <scratch_subdir>  (897) 
/opt/xchem-fragalysis-2/maxwin/BulkDock/SCRATCH/511018/C6025-P124

>  <fragmenstein_runtime>  (897) 
21.605817317962646

>  <fragmenstein_outcome>  (897) 
too moved

>  <fragmenstein_mode>  (897) 
expansion

>  <fragmenstein_error>  (897) 


$$$$
C6025-P49
     RDKit          3D

 45 47  0  0  0  0  0  0  0  0999 V2000
   -5.3346  -13.0384   26.3862 C   0  0  0  0  0  0  0  0  0  0  0  0
   -4.7536  -14.2804   25.6749 C   0  0  0  0  0  0  0  0  0  0  0  0
   -2.9723  -13.4880   24.8628 C   0  0  0  0  0  0  0  0  0  0  0  0
   -1.6601  -12.2777   23.9437 N   0  0  0  0  0  0  0  0  0  0  0  0
   -0.0377  -11.1132   24.5323 C   0  0  0  0  0  0  0  0  0  0  0  0
    1.2093  -11.6268   24.2264 C   0  0  0  0  0  0  0  0  0  0  0  0
    1.0852  -11.6175   22.6612 C   0  0  0  0  0  0  0  0  0  0  0  0
   -0.5103  -12.8074   22.8125 C   0  0  0  0  0  0  0  0  0  0  0  0
   -5.6938  -15.6569   26.7778 N   0  0  0  0  0  0  0  0  0  0  0  0
   -7.3941  -16.4362   26.6045 C   0  0  0  0  0  0  0  0  0  0  0  0
   -8.1562  -16.0634   25.7678 O   0  0  0  0  0  0  0  0  0  0  0  0
   -7.7404  -17.9274   27.7171 N   0  0  0  0  0  0  0  0  0  0  0  0
   -9.2437  -19.2792   27.7052 C   0  0  0  0  0  0  0  0  0  0  0  0
  -10.5814  -20.3387   27.2186 C   0  0  0  0  0  0  0  0  0  0  0  0
  -11.0204  -21.2520   28.1275 C   0  0  0  0  0  0  0  0  0  0  0  0
  -10.7988  -20.6080   29.2748 N   0  0  0  0  0  0  0  0  0  0  0  0
  -11.2624  -21.0755   30.5732 C   0  0  0  0  0  0  0  0  0  0  0  0
  -11.5245  -22.4341   30.7471 C   0  0  0  0  0  0  0  0  0  0  0  0
  -11.8163  -22.8999   32.0263 C   0  0  0  0  0  0  0  0  0  0  0  0
  -11.9262  -22.0143   33.0853 C   0  0  0  0  0  0  0  0  0  0  0  0
  -11.6756  -20.6861   32.8264 C   0  0  0  0  0  0  0  0  0  0  0  0
  -11.2996  -20.2138   31.6180 N   0  0  0  0  0  0  0  0  0  0  0  0
  -10.0015  -19.5053   29.1590 N   0  0  0  0  0  0  0  0  0  0  0  0
   -6.3914  -13.1851   26.6311 H   0  0  0  0  0  0  0  0  0  0  0  0
   -4.7927  -12.8601   27.3198 H   0  0  0  0  0  0  0  0  0  0  0  0
   -5.2668  -12.1415   25.7651 H   0  0  0  0  0  0  0  0  0  0  0  0
   -5.3156  -14.4523   24.7459 H   0  0  0  0  0  0  0  0  0  0  0  0
   -2.9800  -14.2124   24.0291 H   0  0  0  0  0  0  0  0  0  0  0  0
   -3.6500  -12.7005   24.4895 H   0  0  0  0  0  0  0  0  0  0  0  0
    0.0905  -10.6226   25.4900 H   0  0  0  0  0  0  0  0  0  0  0  0
   -0.2138  -10.0575   24.2955 H   0  0  0  0  0  0  0  0  0  0  0  0
    2.0995  -11.7138   24.8570 H   0  0  0  0  0  0  0  0  0  0  0  0
    1.0591  -12.4566   24.8567 H   0  0  0  0  0  0  0  0  0  0  0  0
    1.9855  -11.9771   22.0934 H   0  0  0  0  0  0  0  0  0  0  0  0
    1.0033  -10.6295   22.1852 H   0  0  0  0  0  0  0  0  0  0  0  0
   -0.7296  -12.5152   21.8045 H   0  0  0  0  0  0  0  0  0  0  0  0
   -1.3513  -13.4076   22.4329 H   0  0  0  0  0  0  0  0  0  0  0  0
   -5.2327  -16.0491   27.5917 H   0  0  0  0  0  0  0  0  0  0  0  0
   -7.0091  -18.0080   28.4019 H   0  0  0  0  0  0  0  0  0  0  0  0
  -11.0991  -20.3000   26.2754 H   0  0  0  0  0  0  0  0  0  0  0  0
  -11.7175  -22.0672   28.0208 H   0  0  0  0  0  0  0  0  0  0  0  0
  -11.4327  -23.1546   29.9443 H   0  0  0  0  0  0  0  0  0  0  0  0
  -11.9654  -23.9575   32.1939 H   0  0  0  0  0  0  0  0  0  0  0  0
  -12.2021  -22.3507   34.0791 H   0  0  0  0  0  0  0  0  0  0  0  0
  -11.7612  -19.9394   33.6091 H   0  0  0  0  0  0  0  0  0  0  0  0
  1  2  1  0
  2  3  1  0
  3  4  1  0
  4  5  1  0
  5  6  1  0
  6  7  1  0
  7  8  1  0
  2  9  1  0
  9 10  1  0
 10 11  2  0
 10 12  1  0
 12 13  1  0
 13 14  1  0
 14 15  2  0
 15 16  1  0
 16 17  1  0
 17 18  2  0
 18 19  1  0
 19 20  2  0
 20 21  1  0
 21 22  2  0
 16 23  1  0
  8  4  1  0
 23 13  2  0
 22 17  1  0
  1 24  1  0
  1 25  1  0
  1 26  1  0
  2 27  1  0
  3 28  1  0
  3 29  1  0
  5 30  1  0
  5 31  1  0
  6 32  1  0
  6 33  1  0
  7 34  1  0
  7 35  1  0
  8 36  1  0
  8 37  1  0
  9 38  1  0
 12 39  1  0
 14 40  1  0
 15 41  1  0
 18 42  1  0
 19 43  1  0
 20 44  1  0
 21 45  1  0
M  END
>  <Energy>  (898) 
1123.7882442388145

>  <compound_id>  (898) 
6025

>  <target_id>  (898) 
1

>  <reference_id>  (898) 
49

>  <inspiration_ids>  (898) 
[124, 49]

>  <energy_score>  (898) 
1074.3910876086147

>  <distance_score>  (898) 
14.052646451183994

>  <path>  (898) 
/opt/xchem-fragalysis-2/maxwin/BulkDock/SCRATCH/511018/C6025-P49/C6025-P49.minimised.mol

>  <scratch_subdir>  (898) 
/opt/xchem-fragalysis-2/maxwin/BulkDock/SCRATCH/511018/C6025-P49

>  <fragmenstein_runtime>  (898) 
13.440013885498047

>  <fragmenstein_outcome>  (898) 
too moved

>  <fragmenstein_mode>  (898) 
expansion

>  <fragmenstein_error>  (898) 


$$$$
C6030-P124
     RDKit          3D

 43 44  0  0  0  0  0  0  0  0999 V2000
    7.0221   -7.3306   25.8434 C   0  0  0  0  0  0  0  0  0  0  0  0
    5.8691   -7.4902   26.6925 O   0  0  0  0  0  0  0  0  0  0  0  0
    6.0020   -8.5816   27.6384 C   0  0  0  0  0  0  0  0  0  0  0  0
    4.7620   -8.7317   28.6537 C   0  0  0  0  0  0  0  0  0  0  0  0
    4.0368  -10.0480   28.6135 O   0  0  0  0  0  0  0  0  0  0  0  0
    2.7743  -10.2718   29.3997 C   0  0  0  0  0  0  0  0  0  0  0  0
    2.9681   -9.8354   30.8452 C   0  0  0  0  0  0  0  0  0  0  0  0
    2.1810  -11.8219   29.4418 C   0  0  0  0  0  0  0  0  0  0  0  0
    2.9164  -12.7904   29.2667 O   0  0  0  0  0  0  0  0  0  0  0  0
    0.8058  -11.9713   29.6830 O   0  0  0  0  0  0  0  0  0  0  0  0
    0.1906  -13.3452   29.5464 C   0  0  0  0  0  0  0  0  0  0  0  0
    0.6585  -14.3409   30.6104 C   0  0  0  0  0  0  0  0  0  0  0  0
   -0.3479  -15.5008   30.5750 C   0  0  0  0  0  0  0  0  0  0  0  0
   -1.6231  -14.8729   30.2721 N   0  0  0  0  0  0  0  0  0  0  0  0
   -2.8496  -15.4845   30.4891 C   0  0  0  0  0  0  0  0  0  0  0  0
   -2.9545  -16.7513   31.0967 C   0  0  0  0  0  0  0  0  0  0  0  0
   -4.1972  -17.3466   31.3619 C   0  0  0  0  0  0  0  0  0  0  0  0
   -5.3487  -16.6917   30.9804 C   0  0  0  0  0  0  0  0  0  0  0  0
   -5.1908  -15.4638   30.3659 C   0  0  0  0  0  0  0  0  0  0  0  0
   -3.9895  -14.8539   30.1294 N   0  0  0  0  0  0  0  0  0  0  0  0
   -1.3978  -13.4935   29.7465 C   0  0  0  0  0  0  0  0  0  0  0  0
    6.8048   -6.5429   25.1181 H   0  0  0  0  0  0  0  0  0  0  0  0
    7.8850   -7.0370   26.4473 H   0  0  0  0  0  0  0  0  0  0  0  0
    7.2299   -8.2646   25.3148 H   0  0  0  0  0  0  0  0  0  0  0  0
    6.8966   -8.3830   28.2400 H   0  0  0  0  0  0  0  0  0  0  0  0
    6.1454   -9.5203   27.0969 H   0  0  0  0  0  0  0  0  0  0  0  0
    4.0360   -7.9249   28.5199 H   0  0  0  0  0  0  0  0  0  0  0  0
    5.1713   -8.6636   29.6671 H   0  0  0  0  0  0  0  0  0  0  0  0
    2.0022   -9.6676   28.9114 H   0  0  0  0  0  0  0  0  0  0  0  0
    3.1556   -8.7594   30.9111 H   0  0  0  0  0  0  0  0  0  0  0  0
    3.8311  -10.3443   31.2880 H   0  0  0  0  0  0  0  0  0  0  0  0
    2.0872  -10.0632   31.4538 H   0  0  0  0  0  0  0  0  0  0  0  0
    0.4429  -13.7086   28.5421 H   0  0  0  0  0  0  0  0  0  0  0  0
    0.6508  -13.8556   31.5948 H   0  0  0  0  0  0  0  0  0  0  0  0
    1.6788  -14.6958   30.4392 H   0  0  0  0  0  0  0  0  0  0  0  0
   -0.0837  -16.2163   29.7885 H   0  0  0  0  0  0  0  0  0  0  0  0
   -0.3308  -16.0068   31.5456 H   0  0  0  0  0  0  0  0  0  0  0  0
   -2.0679  -17.2986   31.3943 H   0  0  0  0  0  0  0  0  0  0  0  0
   -4.2530  -18.3124   31.8547 H   0  0  0  0  0  0  0  0  0  0  0  0
   -6.3256  -17.1281   31.1476 H   0  0  0  0  0  0  0  0  0  0  0  0
   -6.0552  -14.8983   30.0294 H   0  0  0  0  0  0  0  0  0  0  0  0
   -1.9058  -13.3407   28.7885 H   0  0  0  0  0  0  0  0  0  0  0  0
   -1.7529  -12.7467   30.4648 H   0  0  0  0  0  0  0  0  0  0  0  0
  1  2  1  0
  2  3  1  0
  3  4  1  0
  4  5  1  0
  5  6  1  0
  6  7  1  0
  6  8  1  0
  8  9  2  0
  8 10  1  0
 10 11  1  0
 11 12  1  0
 12 13  1  0
 13 14  1  0
 14 15  1  0
 15 16  2  0
 16 17  1  0
 17 18  2  0
 18 19  1  0
 19 20  2  0
 14 21  1  0
 21 11  1  0
 20 15  1  0
  1 22  1  0
  1 23  1  0
  1 24  1  0
  3 25  1  0
  3 26  1  0
  4 27  1  0
  4 28  1  0
  6 29  1  0
  7 30  1  0
  7 31  1  0
  7 32  1  0
 11 33  1  0
 12 34  1  0
 12 35  1  0
 13 36  1  0
 13 37  1  0
 16 38  1  0
 17 39  1  0
 18 40  1  0
 19 41  1  0
 21 42  1  0
 21 43  1  0
M  END
>  <Energy>  (899) 
88.088755611572495

>  <compound_id>  (899) 
6030

>  <target_id>  (899) 
1

>  <reference_id>  (899) 
124

>  <inspiration_ids>  (899) 
[124, 49]

>  <energy_score>  (899) 
-15.312847017300612

>  <distance_score>  (899) 
14.213746484551425

>  <path>  (899) 
/opt/xchem-fragalysis-2/maxwin/BulkDock/SCRATCH/511018/C6030-P124/C6030-P124.minimised.mol

>  <scratch_subdir>  (899) 
/opt/xchem-fragalysis-2/maxwin/BulkDock/SCRATCH/511018/C6030-P124

>  <fragmenstein_runtime>  (899) 
32.29354453086853

>  <fragmenstein_outcome>  (899) 
too moved

>  <fragmenstein_mode>  (899) 
expansion

>  <fragmenstein_error>  (899) 


$$$$
C6030-P49
     RDKit          3D

 43 44  0  0  0  0  0  0  0  0999 V2000
    2.8986  -14.9895   26.4721 C   0  0  0  0  0  0  0  0  0  0  0  0
    1.6464  -14.8442   27.0917 O   0  0  0  0  0  0  0  0  0  0  0  0
    1.1409  -16.1633   27.2636 C   0  0  0  0  0  0  0  0  0  0  0  0
   -0.3628  -16.2035   27.5456 C   0  0  0  0  0  0  0  0  0  0  0  0
   -0.9606  -17.3207   26.8233 O   0  0  0  0  0  0  0  0  0  0  0  0
   -2.3643  -17.5640   27.0459 C   0  0  0  0  0  0  0  0  0  0  0  0
   -3.1899  -16.5643   26.2398 C   0  0  0  0  0  0  0  0  0  0  0  0
   -2.8555  -19.0271   26.6871 C   0  0  0  0  0  0  0  0  0  0  0  0
   -2.1443  -19.9316   26.2733 O   0  0  0  0  0  0  0  0  0  0  0  0
   -4.1924  -19.1851   26.9853 O   0  0  0  0  0  0  0  0  0  0  0  0
   -4.9160  -20.4308   26.8133 C   0  0  0  0  0  0  0  0  0  0  0  0
   -4.2340  -21.6311   27.3246 C   0  0  0  0  0  0  0  0  0  0  0  0
   -5.3951  -22.2858   27.9942 C   0  0  0  0  0  0  0  0  0  0  0  0
   -6.9695  -21.9312   27.3303 N   0  0  0  0  0  0  0  0  0  0  0  0
   -8.3551  -22.4510   27.9696 C   0  0  0  0  0  0  0  0  0  0  0  0
   -8.5539  -23.7633   28.4836 C   0  0  0  0  0  0  0  0  0  0  0  0
   -9.7482  -24.1847   29.1106 C   0  0  0  0  0  0  0  0  0  0  0  0
  -10.8113  -23.3200   29.2217 C   0  0  0  0  0  0  0  0  0  0  0  0
  -10.6016  -22.0603   28.7350 C   0  0  0  0  0  0  0  0  0  0  0  0
   -9.4107  -21.6367   28.2192 N   0  0  0  0  0  0  0  0  0  0  0  0
   -6.6612  -20.5844   27.3757 C   0  0  0  0  0  0  0  0  0  0  0  0
    3.5412  -15.5142   27.1838 H   0  0  0  0  0  0  0  0  0  0  0  0
    3.2959  -14.0146   26.2221 H   0  0  0  0  0  0  0  0  0  0  0  0
    2.7620  -15.5716   25.5630 H   0  0  0  0  0  0  0  0  0  0  0  0
    1.6661  -16.6227   28.1112 H   0  0  0  0  0  0  0  0  0  0  0  0
    1.3426  -16.7985   26.3915 H   0  0  0  0  0  0  0  0  0  0  0  0
   -0.8966  -15.2809   27.3276 H   0  0  0  0  0  0  0  0  0  0  0  0
   -0.5075  -16.3978   28.6154 H   0  0  0  0  0  0  0  0  0  0  0  0
   -2.5528  -17.4418   28.1190 H   0  0  0  0  0  0  0  0  0  0  0  0
   -2.9173  -15.5315   26.4725 H   0  0  0  0  0  0  0  0  0  0  0  0
   -3.0254  -16.7088   25.1676 H   0  0  0  0  0  0  0  0  0  0  0  0
   -4.2618  -16.6765   26.4266 H   0  0  0  0  0  0  0  0  0  0  0  0
   -4.8384  -20.6046   25.7306 H   0  0  0  0  0  0  0  0  0  0  0  0
   -3.4064  -21.4279   28.0131 H   0  0  0  0  0  0  0  0  0  0  0  0
   -3.8186  -22.2074   26.4923 H   0  0  0  0  0  0  0  0  0  0  0  0
   -5.4155  -22.3845   29.0668 H   0  0  0  0  0  0  0  0  0  0  0  0
   -5.1665  -23.2343   28.3960 H   0  0  0  0  0  0  0  0  0  0  0  0
   -7.8064  -24.5398   28.4853 H   0  0  0  0  0  0  0  0  0  0  0  0
   -9.8191  -25.1979   29.4976 H   0  0  0  0  0  0  0  0  0  0  0  0
  -11.7492  -23.6072   29.6766 H   0  0  0  0  0  0  0  0  0  0  0  0
  -11.3696  -21.2943   28.7730 H   0  0  0  0  0  0  0  0  0  0  0  0
   -7.3478  -19.7863   27.1344 H   0  0  0  0  0  0  0  0  0  0  0  0
   -6.9463  -20.5978   28.3259 H   0  0  0  0  0  0  0  0  0  0  0  0
  1  2  1  0
  2  3  1  0
  3  4  1  0
  4  5  1  0
  5  6  1  0
  6  7  1  0
  6  8  1  0
  8  9  2  0
  8 10  1  0
 10 11  1  0
 11 12  1  0
 12 13  1  0
 13 14  1  0
 14 15  1  0
 15 16  2  0
 16 17  1  0
 17 18  2  0
 18 19  1  0
 19 20  2  0
 14 21  1  0
 21 11  1  0
 20 15  1  0
  1 22  1  0
  1 23  1  0
  1 24  1  0
  3 25  1  0
  3 26  1  0
  4 27  1  0
  4 28  1  0
  6 29  1  0
  7 30  1  0
  7 31  1  0
  7 32  1  0
 11 33  1  0
 12 34  1  0
 12 35  1  0
 13 36  1  0
 13 37  1  0
 16 38  1  0
 17 39  1  0
 18 40  1  0
 19 41  1  0
 21 42  1  0
 21 43  1  0
M  END
>  <Energy>  (900) 
236.14927236886126

>  <compound_id>  (900) 
6030

>  <target_id>  (900) 
1

>  <reference_id>  (900) 
49

>  <inspiration_ids>  (900) 
[124, 49]

>  <energy_score>  (900) 
132.74766973998038

>  <distance_score>  (900) 
14.236452005612042

>  <path>  (900) 
/opt/xchem-fragalysis-2/maxwin/BulkDock/SCRATCH/511018/C6030-P49/C6030-P49.minimised.mol

>  <scratch_subdir>  (900) 
/opt/xchem-fragalysis-2/maxwin/BulkDock/SCRATCH/511018/C6030-P49

>  <fragmenstein_runtime>  (900) 
11.026981353759766

>  <fragmenstein_outcome>  (900) 
too moved

>  <fragmenstein_mode>  (900) 
expansion

>  <fragmenstein_error>  (900) 


$$$$
C6039-P124
     RDKit          3D

 53 54  0  0  0  0  0  0  0  0999 V2000
    0.5276  -25.1101   27.6124 C   0  0  0  0  0  0  0  0  0  0  0  0
   -0.8599  -24.6711   27.1368 C   0  0  0  0  0  0  0  0  0  0  0  0
   -1.6648  -23.5442   28.0004 C   0  0  0  0  0  0  0  0  0  0  0  0
   -0.9469  -23.1761   29.4149 C   0  0  0  0  0  0  0  0  0  0  0  0
   -0.8300  -22.1111   27.0629 C   0  0  0  0  0  0  0  0  0  0  0  0
    0.7712  -21.7756   26.8201 C   0  0  0  0  0  0  0  0  0  0  0  0
    1.2164  -20.4784   25.8123 C   0  0  0  0  0  0  0  0  0  0  0  0
    2.7391  -20.4007   25.4855 C   0  0  0  0  0  0  0  0  0  0  0  0
    0.8197  -19.0695   26.2833 C   0  0  0  0  0  0  0  0  0  0  0  0
   -3.6801  -24.1716   27.9891 C   0  0  0  0  0  0  0  0  0  0  0  0
   -3.8967  -24.7856   26.9586 O   0  0  0  0  0  0  0  0  0  0  0  0
   -5.1966  -24.2314   29.1047 O   0  0  0  0  0  0  0  0  0  0  0  0
   -6.3528  -24.8962   30.6822 C   0  0  0  0  0  0  0  0  0  0  0  0
   -7.8843  -25.1903   31.8702 C   0  0  0  0  0  0  0  0  0  0  0  0
   -9.2337  -25.7790   31.3671 C   0  0  0  0  0  0  0  0  0  0  0  0
   -9.3430  -25.1462   30.1081 N   0  0  0  0  0  0  0  0  0  0  0  0
  -10.3448  -25.2815   29.1695 C   0  0  0  0  0  0  0  0  0  0  0  0
  -10.9696  -26.4792   28.9143 C   0  0  0  0  0  0  0  0  0  0  0  0
  -11.8979  -26.5901   27.8822 C   0  0  0  0  0  0  0  0  0  0  0  0
  -12.1868  -25.4800   27.1114 C   0  0  0  0  0  0  0  0  0  0  0  0
  -11.5473  -24.3034   27.4256 C   0  0  0  0  0  0  0  0  0  0  0  0
  -10.6415  -24.2017   28.4162 N   0  0  0  0  0  0  0  0  0  0  0  0
   -8.0420  -25.1788   29.4384 C   0  0  0  0  0  0  0  0  0  0  0  0
    0.4980  -25.7160   28.5206 H   0  0  0  0  0  0  0  0  0  0  0  0
    1.1902  -24.2656   27.8067 H   0  0  0  0  0  0  0  0  0  0  0  0
    0.9990  -25.7256   26.8382 H   0  0  0  0  0  0  0  0  0  0  0  0
   -0.7144  -24.3009   26.1169 H   0  0  0  0  0  0  0  0  0  0  0  0
   -1.4874  -25.5539   26.9732 H   0  0  0  0  0  0  0  0  0  0  0  0
   -0.4576  -22.1975   29.3892 H   0  0  0  0  0  0  0  0  0  0  0  0
   -1.6695  -23.0912   30.2363 H   0  0  0  0  0  0  0  0  0  0  0  0
   -0.1690  -23.8863   29.7014 H   0  0  0  0  0  0  0  0  0  0  0  0
   -1.1285  -21.1885   27.5713 H   0  0  0  0  0  0  0  0  0  0  0  0
   -1.2059  -22.1072   26.0435 H   0  0  0  0  0  0  0  0  0  0  0  0
    1.2475  -21.6142   27.7929 H   0  0  0  0  0  0  0  0  0  0  0  0
    1.2215  -22.6572   26.3538 H   0  0  0  0  0  0  0  0  0  0  0  0
    0.6889  -20.6757   24.8697 H   0  0  0  0  0  0  0  0  0  0  0  0
    3.0776  -21.3542   25.0680 H   0  0  0  0  0  0  0  0  0  0  0  0
    3.3183  -20.2015   26.3928 H   0  0  0  0  0  0  0  0  0  0  0  0
    2.9469  -19.6143   24.7527 H   0  0  0  0  0  0  0  0  0  0  0  0
    1.3531  -18.7955   27.1990 H   0  0  0  0  0  0  0  0  0  0  0  0
    1.0373  -18.3287   25.5108 H   0  0  0  0  0  0  0  0  0  0  0  0
   -0.2538  -19.0309   26.4927 H   0  0  0  0  0  0  0  0  0  0  0  0
   -5.8336  -24.2108   31.4244 H   0  0  0  0  0  0  0  0  0  0  0  0
   -7.5444  -25.8226   32.6893 H   0  0  0  0  0  0  0  0  0  0  0  0
   -8.2555  -24.3155   32.4254 H   0  0  0  0  0  0  0  0  0  0  0  0
  -10.0501  -25.4829   32.0363 H   0  0  0  0  0  0  0  0  0  0  0  0
   -9.2447  -26.8717   31.3053 H   0  0  0  0  0  0  0  0  0  0  0  0
  -10.7682  -27.3099   29.5662 H   0  0  0  0  0  0  0  0  0  0  0  0
  -12.3864  -27.5379   27.6834 H   0  0  0  0  0  0  0  0  0  0  0  0
  -12.8976  -25.5245   26.2948 H   0  0  0  0  0  0  0  0  0  0  0  0
  -11.7493  -23.3865   26.8791 H   0  0  0  0  0  0  0  0  0  0  0  0
   -7.9980  -26.0497   28.7565 H   0  0  0  0  0  0  0  0  0  0  0  0
   -8.1177  -24.3284   28.7523 H   0  0  0  0  0  0  0  0  0  0  0  0
  1  2  1  0
  2  3  1  0
  3  4  1  0
  3  5  1  0
  5  6  1  0
  6  7  1  0
  7  8  1  0
  7  9  1  0
  3 10  1  0
 10 11  2  0
 10 12  1  0
 12 13  1  0
 13 14  1  0
 14 15  1  0
 15 16  1  0
 16 17  1  0
 17 18  2  0
 18 19  1  0
 19 20  2  0
 20 21  1  0
 21 22  2  0
 16 23  1  0
 23 13  1  0
 22 17  1  0
  1 24  1  0
  1 25  1  0
  1 26  1  0
  2 27  1  0
  2 28  1  0
  4 29  1  0
  4 30  1  0
  4 31  1  0
  5 32  1  0
  5 33  1  0
  6 34  1  0
  6 35  1  0
  7 36  1  0
  8 37  1  0
  8 38  1  0
  8 39  1  0
  9 40  1  0
  9 41  1  0
  9 42  1  0
 13 43  1  0
 14 44  1  0
 14 45  1  0
 15 46  1  0
 15 47  1  0
 18 48  1  0
 19 49  1  0
 20 50  1  0
 21 51  1  0
 23 52  1  0
 23 53  1  0
M  END
>  <Energy>  (901) 
694.4244713353429

>  <compound_id>  (901) 
6039

>  <target_id>  (901) 
1

>  <reference_id>  (901) 
124

>  <inspiration_ids>  (901) 
[124, 49]

>  <energy_score>  (901) 
638.3558825315018

>  <distance_score>  (901) 
14.765761524975341

>  <path>  (901) 
/opt/xchem-fragalysis-2/maxwin/BulkDock/SCRATCH/511018/C6039-P124/C6039-P124.minimised.mol

>  <scratch_subdir>  (901) 
/opt/xchem-fragalysis-2/maxwin/BulkDock/SCRATCH/511018/C6039-P124

>  <fragmenstein_runtime>  (901) 
46.759318351745605

>  <fragmenstein_outcome>  (901) 
too moved

>  <fragmenstein_mode>  (901) 
expansion

>  <fragmenstein_error>  (901) 


$$$$
C6039-P49
     RDKit          3D

 53 54  0  0  0  0  0  0  0  0999 V2000
    4.6803  -23.9398   21.0713 C   0  0  0  0  0  0  0  0  0  0  0  0
    5.5779  -22.7153   20.9372 C   0  0  0  0  0  0  0  0  0  0  0  0
    4.8461  -21.3590   20.8137 C   0  0  0  0  0  0  0  0  0  0  0  0
    3.9068  -21.3200   19.6057 C   0  0  0  0  0  0  0  0  0  0  0  0
    5.9646  -20.2131   20.6458 C   0  0  0  0  0  0  0  0  0  0  0  0
    7.1582  -20.1267   19.5980 C   0  0  0  0  0  0  0  0  0  0  0  0
    7.8360  -18.6390   19.4613 C   0  0  0  0  0  0  0  0  0  0  0  0
    8.4911  -18.3147   18.0992 C   0  0  0  0  0  0  0  0  0  0  0  0
    8.9372  -18.4009   20.4993 C   0  0  0  0  0  0  0  0  0  0  0  0
    4.0184  -21.0927   22.1703 C   0  0  0  0  0  0  0  0  0  0  0  0
    4.5615  -20.6211   23.1676 O   0  0  0  0  0  0  0  0  0  0  0  0
    2.6878  -21.5037   22.1844 O   0  0  0  0  0  0  0  0  0  0  0  0
    1.8926  -21.2088   23.4034 C   0  0  0  0  0  0  0  0  0  0  0  0
    2.2767  -22.0859   24.5993 C   0  0  0  0  0  0  0  0  0  0  0  0
    1.0871  -21.9388   25.5653 C   0  0  0  0  0  0  0  0  0  0  0  0
   -0.0783  -21.9654   24.6903 N   0  0  0  0  0  0  0  0  0  0  0  0
   -1.3289  -21.7621   25.2659 C   0  0  0  0  0  0  0  0  0  0  0  0
   -2.4937  -21.8978   24.5183 C   0  0  0  0  0  0  0  0  0  0  0  0
   -3.7467  -21.7296   25.1167 C   0  0  0  0  0  0  0  0  0  0  0  0
   -3.8335  -21.3904   26.4551 C   0  0  0  0  0  0  0  0  0  0  0  0
   -2.6509  -21.2934   27.1513 C   0  0  0  0  0  0  0  0  0  0  0  0
   -1.4287  -21.4953   26.5959 N   0  0  0  0  0  0  0  0  0  0  0  0
    0.3292  -21.5056   23.3280 C   0  0  0  0  0  0  0  0  0  0  0  0
    4.0582  -24.0848   20.1839 H   0  0  0  0  0  0  0  0  0  0  0  0
    4.0306  -23.8715   21.9481 H   0  0  0  0  0  0  0  0  0  0  0  0
    5.2964  -24.8379   21.1877 H   0  0  0  0  0  0  0  0  0  0  0  0
    6.2406  -22.6884   21.8120 H   0  0  0  0  0  0  0  0  0  0  0  0
    6.2230  -22.8632   20.0621 H   0  0  0  0  0  0  0  0  0  0  0  0
    3.3824  -20.3607   19.5538 H   0  0  0  0  0  0  0  0  0  0  0  0
    4.4552  -21.4647   18.6694 H   0  0  0  0  0  0  0  0  0  0  0  0
    3.1305  -22.0895   19.6613 H   0  0  0  0  0  0  0  0  0  0  0  0
    6.4898  -20.2205   21.6063 H   0  0  0  0  0  0  0  0  0  0  0  0
    5.3860  -19.2926   20.5194 H   0  0  0  0  0  0  0  0  0  0  0  0
    6.8101  -20.4750   18.6240 H   0  0  0  0  0  0  0  0  0  0  0  0
    7.9407  -20.8328   19.9027 H   0  0  0  0  0  0  0  0  0  0  0  0
    7.0296  -17.9172   19.6182 H   0  0  0  0  0  0  0  0  0  0  0  0
    9.3187  -19.0028   17.8954 H   0  0  0  0  0  0  0  0  0  0  0  0
    7.7793  -18.4112   17.2776 H   0  0  0  0  0  0  0  0  0  0  0  0
    8.8835  -17.2930   18.0849 H   0  0  0  0  0  0  0  0  0  0  0  0
    9.2883  -17.3739   20.4767 H   0  0  0  0  0  0  0  0  0  0  0  0
    9.7982  -19.0513   20.3068 H   0  0  0  0  0  0  0  0  0  0  0  0
    8.5940  -18.6280   21.5077 H   0  0  0  0  0  0  0  0  0  0  0  0
    2.0251  -20.1460   23.6454 H   0  0  0  0  0  0  0  0  0  0  0  0
    2.3940  -23.1285   24.2788 H   0  0  0  0  0  0  0  0  0  0  0  0
    3.2163  -21.7793   25.0672 H   0  0  0  0  0  0  0  0  0  0  0  0
    1.1616  -20.9817   26.0965 H   0  0  0  0  0  0  0  0  0  0  0  0
    1.0763  -22.7582   26.2918 H   0  0  0  0  0  0  0  0  0  0  0  0
   -2.4373  -22.1632   23.4678 H   0  0  0  0  0  0  0  0  0  0  0  0
   -4.6387  -21.8783   24.5191 H   0  0  0  0  0  0  0  0  0  0  0  0
   -4.7917  -21.2379   26.9283 H   0  0  0  0  0  0  0  0  0  0  0  0
   -2.6324  -21.0482   28.2079 H   0  0  0  0  0  0  0  0  0  0  0  0
    0.1255  -22.2892   22.5907 H   0  0  0  0  0  0  0  0  0  0  0  0
   -0.1999  -20.5927   23.0329 H   0  0  0  0  0  0  0  0  0  0  0  0
  1  2  1  0
  2  3  1  0
  3  4  1  0
  3  5  1  0
  5  6  1  0
  6  7  1  0
  7  8  1  0
  7  9  1  0
  3 10  1  0
 10 11  2  0
 10 12  1  0
 12 13  1  0
 13 14  1  0
 14 15  1  0
 15 16  1  0
 16 17  1  0
 17 18  2  0
 18 19  1  0
 19 20  2  0
 20 21  1  0
 21 22  2  0
 16 23  1  0
 23 13  1  0
 22 17  1  0
  1 24  1  0
  1 25  1  0
  1 26  1  0
  2 27  1  0
  2 28  1  0
  4 29  1  0
  4 30  1  0
  4 31  1  0
  5 32  1  0
  5 33  1  0
  6 34  1  0
  6 35  1  0
  7 36  1  0
  8 37  1  0
  8 38  1  0
  8 39  1  0
  9 40  1  0
  9 41  1  0
  9 42  1  0
 13 43  1  0
 14 44  1  0
 14 45  1  0
 15 46  1  0
 15 47  1  0
 18 48  1  0
 19 49  1  0
 20 50  1  0
 21 51  1  0
 23 52  1  0
 23 53  1  0
M  END
>  <Energy>  (902) 
33.983063877298946

>  <compound_id>  (902) 
6039

>  <target_id>  (902) 
1

>  <reference_id>  (902) 
49

>  <inspiration_ids>  (902) 
[124, 49]

>  <energy_score>  (902) 
-22.085524926539392

>  <distance_score>  (902) 
14.80968821212944

>  <path>  (902) 
/opt/xchem-fragalysis-2/maxwin/BulkDock/SCRATCH/511018/C6039-P49/C6039-P49.minimised.mol

>  <scratch_subdir>  (902) 
/opt/xchem-fragalysis-2/maxwin/BulkDock/SCRATCH/511018/C6039-P49

>  <fragmenstein_runtime>  (902) 
47.89938569068909

>  <fragmenstein_outcome>  (902) 
too moved

>  <fragmenstein_mode>  (902) 
expansion

>  <fragmenstein_error>  (902) 


$$$$
C6049-P124
     RDKit          3D

 52 53  0  0  0  0  0  0  0  0999 V2000
    9.6271  -10.6782   24.5341 C   0  0  0  0  0  0  0  0  0  0  0  0
    8.2012  -11.0750   24.9325 C   0  0  0  0  0  0  0  0  0  0  0  0
    7.6584  -10.3826   26.1726 C   0  0  0  0  0  0  0  0  0  0  0  0
    6.7517  -11.4558   26.8353 C   0  0  0  0  0  0  0  0  0  0  0  0
    6.5283  -12.5126   25.7956 N   0  0  0  0  0  0  0  0  0  0  0  0
    5.7315  -13.7777   26.3803 C   0  0  0  0  0  0  0  0  0  0  0  0
    4.6011  -14.7035   25.2846 C   0  0  0  0  0  0  0  0  0  0  0  0
    4.8498  -15.8792   25.0958 O   0  0  0  0  0  0  0  0  0  0  0  0
    3.4621  -13.8081   24.7124 N   0  0  0  0  0  0  0  0  0  0  0  0
    2.1872  -14.1482   23.4878 C   0  0  0  0  0  0  0  0  0  0  0  0
    0.0500  -14.1974   23.6781 C   0  0  0  0  0  0  0  0  0  0  0  0
   -1.5083  -15.4642   23.9842 N   0  0  0  0  0  0  0  0  0  0  0  0
   -1.8324  -14.4732   25.0970 C   0  0  0  0  0  0  0  0  0  0  0  0
   -2.2290  -15.7405   22.6817 C   0  0  0  0  0  0  0  0  0  0  0  0
   -3.1736  -15.1734   22.1666 O   0  0  0  0  0  0  0  0  0  0  0  0
   -1.8646  -16.9664   21.8810 C   0  0  0  0  0  0  0  0  0  0  0  0
   -2.9943  -18.0534   22.2488 C   0  0  0  0  0  0  0  0  0  0  0  0
   -3.3040  -18.5153   23.6774 C   0  0  0  0  0  0  0  0  0  0  0  0
   -4.0421  -17.7342   24.5722 C   0  0  0  0  0  0  0  0  0  0  0  0
   -4.3886  -18.2477   25.8278 C   0  0  0  0  0  0  0  0  0  0  0  0
   -4.0143  -19.5401   26.1555 C   0  0  0  0  0  0  0  0  0  0  0  0
   -3.3179  -20.2676   25.2138 C   0  0  0  0  0  0  0  0  0  0  0  0
   -2.9574  -19.7881   23.9983 N   0  0  0  0  0  0  0  0  0  0  0  0
    7.9638  -12.5536   25.3078 C   0  0  0  0  0  0  0  0  0  0  0  0
    9.6821   -9.6061   24.3211 H   0  0  0  0  0  0  0  0  0  0  0  0
   10.3345  -10.9063   25.3378 H   0  0  0  0  0  0  0  0  0  0  0  0
    9.9397  -11.2259   23.6397 H   0  0  0  0  0  0  0  0  0  0  0  0
    7.5504  -10.8321   24.0807 H   0  0  0  0  0  0  0  0  0  0  0  0
    7.0907   -9.4878   25.8975 H   0  0  0  0  0  0  0  0  0  0  0  0
    8.4526  -10.0863   26.8664 H   0  0  0  0  0  0  0  0  0  0  0  0
    7.2747  -11.8906   27.6988 H   0  0  0  0  0  0  0  0  0  0  0  0
    5.8402  -11.0053   27.2285 H   0  0  0  0  0  0  0  0  0  0  0  0
    6.4749  -14.5037   26.7387 H   0  0  0  0  0  0  0  0  0  0  0  0
    5.1584  -13.4978   27.2668 H   0  0  0  0  0  0  0  0  0  0  0  0
    3.5987  -12.8790   25.0063 H   0  0  0  0  0  0  0  0  0  0  0  0
    2.4559  -13.0467   23.3896 H   0  0  0  0  0  0  0  0  0  0  0  0
    2.7368  -14.7937   22.8470 H   0  0  0  0  0  0  0  0  0  0  0  0
    0.3778  -14.3743   24.6383 H   0  0  0  0  0  0  0  0  0  0  0  0
   -0.0473  -14.3567   22.6084 H   0  0  0  0  0  0  0  0  0  0  0  0
   -2.0811  -14.9483   26.0646 H   0  0  0  0  0  0  0  0  0  0  0  0
   -2.9645  -14.4703   25.0875 H   0  0  0  0  0  0  0  0  0  0  0  0
   -1.5685  -13.4488   25.1682 H   0  0  0  0  0  0  0  0  0  0  0  0
   -0.8936  -17.3941   21.9766 H   0  0  0  0  0  0  0  0  0  0  0  0
   -1.9589  -16.7246   20.8140 H   0  0  0  0  0  0  0  0  0  0  0  0
   -2.7449  -18.9496   21.6638 H   0  0  0  0  0  0  0  0  0  0  0  0
   -3.9451  -17.6996   21.8249 H   0  0  0  0  0  0  0  0  0  0  0  0
   -4.3638  -16.7353   24.2939 H   0  0  0  0  0  0  0  0  0  0  0  0
   -4.9598  -17.6471   26.5304 H   0  0  0  0  0  0  0  0  0  0  0  0
   -4.2606  -19.9823   27.1047 H   0  0  0  0  0  0  0  0  0  0  0  0
   -3.0118  -21.2908   25.4098 H   0  0  0  0  0  0  0  0  0  0  0  0
    8.2034  -13.1327   24.4279 H   0  0  0  0  0  0  0  0  0  0  0  0
    8.6394  -12.8932   26.1051 H   0  0  0  0  0  0  0  0  0  0  0  0
  1  2  1  0
  2  3  1  0
  3  4  1  0
  4  5  1  0
  5  6  1  0
  6  7  1  0
  7  8  2  0
  7  9  1  0
  9 10  1  0
 10 11  1  0
 11 12  1  0
 12 13  1  0
 12 14  1  0
 14 15  2  0
 14 16  1  0
 16 17  1  0
 17 18  1  0
 18 19  2  0
 19 20  1  0
 20 21  2  0
 21 22  1  0
 22 23  2  0
  5 24  1  0
 24  2  1  0
 23 18  1  0
  1 25  1  0
  1 26  1  0
  1 27  1  0
  2 28  1  0
  3 29  1  0
  3 30  1  0
  4 31  1  0
  4 32  1  0
  6 33  1  0
  6 34  1  0
  9 35  1  0
 10 36  1  0
 10 37  1  0
 11 38  1  0
 11 39  1  0
 13 40  1  0
 13 41  1  0
 13 42  1  0
 16 43  1  0
 16 44  1  0
 17 45  1  0
 17 46  1  0
 19 47  1  0
 20 48  1  0
 21 49  1  0
 22 50  1  0
 24 51  1  0
 24 52  1  0
M  END
>  <Energy>  (903) 
482.55529637919875

>  <compound_id>  (903) 
6049

>  <target_id>  (903) 
1

>  <reference_id>  (903) 
124

>  <inspiration_ids>  (903) 
[124, 49]

>  <energy_score>  (903) 
387.9310835161499

>  <distance_score>  (903) 
14.81516247161115

>  <path>  (903) 
/opt/xchem-fragalysis-2/maxwin/BulkDock/SCRATCH/511018/C6049-P124/C6049-P124.minimised.mol

>  <scratch_subdir>  (903) 
/opt/xchem-fragalysis-2/maxwin/BulkDock/SCRATCH/511018/C6049-P124

>  <fragmenstein_runtime>  (903) 
19.985527515411377

>  <fragmenstein_outcome>  (903) 
too moved

>  <fragmenstein_mode>  (903) 
expansion

>  <fragmenstein_error>  (903) 


$$$$
C6049-P49
     RDKit          3D

 52 53  0  0  0  0  0  0  0  0999 V2000
    8.6808   -8.1008   21.5574 C   0  0  0  0  0  0  0  0  0  0  0  0
    8.0392   -9.4421   21.9291 C   0  0  0  0  0  0  0  0  0  0  0  0
    8.8014  -10.2107   23.0006 C   0  0  0  0  0  0  0  0  0  0  0  0
    7.7243  -10.7648   23.9534 C   0  0  0  0  0  0  0  0  0  0  0  0
    6.4285  -10.6909   23.2215 N   0  0  0  0  0  0  0  0  0  0  0  0
    5.1622  -10.7933   24.0917 C   0  0  0  0  0  0  0  0  0  0  0  0
    3.9466  -12.2150   24.6819 C   0  0  0  0  0  0  0  0  0  0  0  0
    3.3876  -11.8748   25.6493 O   0  0  0  0  0  0  0  0  0  0  0  0
    3.9296  -13.4871   24.0278 N   0  0  0  0  0  0  0  0  0  0  0  0
    3.0951  -15.2365   24.5535 C   0  0  0  0  0  0  0  0  0  0  0  0
    2.5984  -16.3216   25.9327 C   0  0  0  0  0  0  0  0  0  0  0  0
    1.7984  -16.0496   27.2258 N   0  0  0  0  0  0  0  0  0  0  0  0
    3.1249  -15.7005   27.7128 C   0  0  0  0  0  0  0  0  0  0  0  0
    0.9411  -17.1831   27.5431 C   0  0  0  0  0  0  0  0  0  0  0  0
    1.1536  -18.1598   28.2198 O   0  0  0  0  0  0  0  0  0  0  0  0
   -0.4857  -17.0231   26.9930 C   0  0  0  0  0  0  0  0  0  0  0  0
   -1.5735  -17.4937   28.0108 C   0  0  0  0  0  0  0  0  0  0  0  0
   -2.2219  -18.8171   27.7031 C   0  0  0  0  0  0  0  0  0  0  0  0
   -1.9886  -19.9490   28.4811 C   0  0  0  0  0  0  0  0  0  0  0  0
   -2.6110  -21.1434   28.1300 C   0  0  0  0  0  0  0  0  0  0  0  0
   -3.4475  -21.1659   27.0210 C   0  0  0  0  0  0  0  0  0  0  0  0
   -3.6418  -19.9958   26.3189 C   0  0  0  0  0  0  0  0  0  0  0  0
   -3.0708  -18.8247   26.6494 N   0  0  0  0  0  0  0  0  0  0  0  0
    6.6133   -9.3772   22.5114 C   0  0  0  0  0  0  0  0  0  0  0  0
    9.6940   -8.2514   21.1716 H   0  0  0  0  0  0  0  0  0  0  0  0
    8.0893   -7.5962   20.7869 H   0  0  0  0  0  0  0  0  0  0  0  0
    8.7399   -7.4394   22.4279 H   0  0  0  0  0  0  0  0  0  0  0  0
    8.0200  -10.0504   21.0171 H   0  0  0  0  0  0  0  0  0  0  0  0
    9.5076   -9.5805   23.5518 H   0  0  0  0  0  0  0  0  0  0  0  0
    9.3670  -11.0300   22.5423 H   0  0  0  0  0  0  0  0  0  0  0  0
    7.9587  -11.7891   24.2586 H   0  0  0  0  0  0  0  0  0  0  0  0
    7.7043  -10.1352   24.8526 H   0  0  0  0  0  0  0  0  0  0  0  0
    4.9618   -9.7469   24.3191 H   0  0  0  0  0  0  0  0  0  0  0  0
    5.6770  -10.7692   25.0626 H   0  0  0  0  0  0  0  0  0  0  0  0
    4.4646  -13.4182   23.1550 H   0  0  0  0  0  0  0  0  0  0  0  0
    2.5654  -15.8117   23.7473 H   0  0  0  0  0  0  0  0  0  0  0  0
    3.7510  -15.9072   24.0570 H   0  0  0  0  0  0  0  0  0  0  0  0
    3.3454  -17.1340   26.0725 H   0  0  0  0  0  0  0  0  0  0  0  0
    1.8985  -16.9865   25.3946 H   0  0  0  0  0  0  0  0  0  0  0  0
    2.9552  -15.3881   28.7517 H   0  0  0  0  0  0  0  0  0  0  0  0
    3.5670  -14.8683   27.1842 H   0  0  0  0  0  0  0  0  0  0  0  0
    3.7849  -16.5680   27.8656 H   0  0  0  0  0  0  0  0  0  0  0  0
   -0.5573  -17.5470   26.0349 H   0  0  0  0  0  0  0  0  0  0  0  0
   -0.6634  -15.9625   26.8273 H   0  0  0  0  0  0  0  0  0  0  0  0
   -1.1810  -17.4906   29.0350 H   0  0  0  0  0  0  0  0  0  0  0  0
   -2.3789  -16.7461   28.0061 H   0  0  0  0  0  0  0  0  0  0  0  0
   -1.3023  -19.9090   29.3217 H   0  0  0  0  0  0  0  0  0  0  0  0
   -2.4122  -22.0492   28.6924 H   0  0  0  0  0  0  0  0  0  0  0  0
   -3.9163  -22.0687   26.6648 H   0  0  0  0  0  0  0  0  0  0  0  0
   -4.2418  -19.9738   25.4174 H   0  0  0  0  0  0  0  0  0  0  0  0
    6.5305   -8.5383   23.2144 H   0  0  0  0  0  0  0  0  0  0  0  0
    5.8837   -9.2433   21.7106 H   0  0  0  0  0  0  0  0  0  0  0  0
  1  2  1  0
  2  3  1  0
  3  4  1  0
  4  5  1  0
  5  6  1  0
  6  7  1  0
  7  8  2  0
  7  9  1  0
  9 10  1  0
 10 11  1  0
 11 12  1  0
 12 13  1  0
 12 14  1  0
 14 15  2  0
 14 16  1  0
 16 17  1  0
 17 18  1  0
 18 19  2  0
 19 20  1  0
 20 21  2  0
 21 22  1  0
 22 23  2  0
  5 24  1  0
 24  2  1  0
 23 18  1  0
  1 25  1  0
  1 26  1  0
  1 27  1  0
  2 28  1  0
  3 29  1  0
  3 30  1  0
  4 31  1  0
  4 32  1  0
  6 33  1  0
  6 34  1  0
  9 35  1  0
 10 36  1  0
 10 37  1  0
 11 38  1  0
 11 39  1  0
 13 40  1  0
 13 41  1  0
 13 42  1  0
 16 43  1  0
 16 44  1  0
 17 45  1  0
 17 46  1  0
 19 47  1  0
 20 48  1  0
 21 49  1  0
 22 50  1  0
 24 51  1  0
 24 52  1  0
M  END
>  <Energy>  (904) 
386.72019797565963

>  <compound_id>  (904) 
6049

>  <target_id>  (904) 
1

>  <reference_id>  (904) 
49

>  <inspiration_ids>  (904) 
[124, 49]

>  <energy_score>  (904) 
292.0959851126038

>  <distance_score>  (904) 
13.45901322577413

>  <path>  (904) 
/opt/xchem-fragalysis-2/maxwin/BulkDock/SCRATCH/511018/C6049-P49/C6049-P49.minimised.mol

>  <scratch_subdir>  (904) 
/opt/xchem-fragalysis-2/maxwin/BulkDock/SCRATCH/511018/C6049-P49

>  <fragmenstein_runtime>  (904) 
15.818535804748535

>  <fragmenstein_outcome>  (904) 
too moved

>  <fragmenstein_mode>  (904) 
expansion

>  <fragmenstein_error>  (904) 


$$$$
C6051-P124
     RDKit          3D

 41 44  0  0  0  0  0  0  0  0999 V2000
    2.4742  -18.7547   25.6781 O   0  0  0  0  0  0  0  0  0  0  0  0
    2.6454  -18.1279   26.6566 C   0  0  0  0  0  0  0  0  0  0  0  0
    1.7489  -17.8752   27.7907 N   0  0  0  0  0  0  0  0  0  0  0  0
    0.3474  -18.2430   28.0026 C   0  0  0  0  0  0  0  0  0  0  0  0
   -0.4002  -17.3239   28.9568 C   0  0  0  0  0  0  0  0  0  0  0  0
   -1.6847  -18.0935   29.2499 C   0  0  0  0  0  0  0  0  0  0  0  0
   -1.3062  -19.5131   29.1961 N   0  0  0  0  0  0  0  0  0  0  0  0
   -1.6252  -20.3133   30.2937 C   0  0  0  0  0  0  0  0  0  0  0  0
   -1.5365  -21.7028   30.1909 C   0  0  0  0  0  0  0  0  0  0  0  0
   -1.9331  -22.5117   31.2554 C   0  0  0  0  0  0  0  0  0  0  0  0
   -2.4057  -21.9183   32.4122 C   0  0  0  0  0  0  0  0  0  0  0  0
   -2.5034  -20.5428   32.4397 C   0  0  0  0  0  0  0  0  0  0  0  0
   -2.1263  -19.7473   31.4153 N   0  0  0  0  0  0  0  0  0  0  0  0
    0.0599  -19.6331   28.6379 C   0  0  0  0  0  0  0  0  0  0  0  0
    3.8653  -17.4305   27.1458 N   0  0  0  0  0  0  0  0  0  0  0  0
    5.2960  -17.4128   26.5824 C   0  0  0  0  0  0  0  0  0  0  0  0
    5.6782  -16.2564   25.6463 C   0  0  0  0  0  0  0  0  0  0  0  0
    4.3146  -15.9164   25.1848 C   0  0  0  0  0  0  0  0  0  0  0  0
    3.8837  -15.9632   26.6347 C   0  0  0  0  0  0  0  0  0  0  0  0
    4.9220  -15.0115   27.3172 C   0  0  0  0  0  0  0  0  0  0  0  0
    6.0873  -15.1570   26.4763 O   0  0  0  0  0  0  0  0  0  0  0  0
    2.2510  -17.3598   28.5018 H   0  0  0  0  0  0  0  0  0  0  0  0
   -0.1312  -18.2164   27.0147 H   0  0  0  0  0  0  0  0  0  0  0  0
   -0.5952  -16.3369   28.5262 H   0  0  0  0  0  0  0  0  0  0  0  0
    0.1738  -17.1791   29.8808 H   0  0  0  0  0  0  0  0  0  0  0  0
   -2.3984  -17.8909   28.4445 H   0  0  0  0  0  0  0  0  0  0  0  0
   -2.1343  -17.7475   30.1856 H   0  0  0  0  0  0  0  0  0  0  0  0
   -1.1741  -22.1567   29.2745 H   0  0  0  0  0  0  0  0  0  0  0  0
   -1.8402  -23.5904   31.1848 H   0  0  0  0  0  0  0  0  0  0  0  0
   -2.6549  -22.5118   33.2800 H   0  0  0  0  0  0  0  0  0  0  0  0
   -2.8724  -20.0163   33.3143 H   0  0  0  0  0  0  0  0  0  0  0  0
    0.7941  -19.8391   29.4276 H   0  0  0  0  0  0  0  0  0  0  0  0
    0.1170  -20.4273   27.8863 H   0  0  0  0  0  0  0  0  0  0  0  0
    5.9719  -17.4890   27.4447 H   0  0  0  0  0  0  0  0  0  0  0  0
    5.3754  -18.3555   26.0243 H   0  0  0  0  0  0  0  0  0  0  0  0
    6.4367  -16.5048   24.9043 H   0  0  0  0  0  0  0  0  0  0  0  0
    3.8622  -16.6843   24.5594 H   0  0  0  0  0  0  0  0  0  0  0  0
    4.1787  -14.9277   24.7606 H   0  0  0  0  0  0  0  0  0  0  0  0
    2.8690  -15.5722   26.7736 H   0  0  0  0  0  0  0  0  0  0  0  0
    5.1595  -15.3110   28.3434 H   0  0  0  0  0  0  0  0  0  0  0  0
    4.6281  -13.9695   27.3130 H   0  0  0  0  0  0  0  0  0  0  0  0
  1  2  2  0
  2  3  1  0
  3  4  1  0
  4  5  1  0
  5  6  1  0
  6  7  1  0
  7  8  1  0
  8  9  2  0
  9 10  1  0
 10 11  2  0
 11 12  1  0
 12 13  2  0
  7 14  1  0
  2 15  1  0
 15 16  1  0
 16 17  1  0
 17 18  1  0
 18 19  1  0
 19 20  1  0
 20 21  1  0
 14  4  1  0
 19 15  1  0
 13  8  1  0
 21 17  1  0
  3 22  1  0
  4 23  1  0
  5 24  1  0
  5 25  1  0
  6 26  1  0
  6 27  1  0
  9 28  1  0
 10 29  1  0
 11 30  1  0
 12 31  1  0
 14 32  1  0
 14 33  1  0
 16 34  1  0
 16 35  1  0
 17 36  1  0
 18 37  1  0
 18 38  1  0
 19 39  1  0
 20 40  1  0
 20 41  1  0
M  END
>  <Energy>  (905) 
49.36664851155907

>  <compound_id>  (905) 
6051

>  <target_id>  (905) 
1

>  <reference_id>  (905) 
124

>  <inspiration_ids>  (905) 
[124, 49]

>  <energy_score>  (905) 
39.05277492260075

>  <distance_score>  (905) 
14.485115705205265

>  <path>  (905) 
/opt/xchem-fragalysis-2/maxwin/BulkDock/SCRATCH/511018/C6051-P124/C6051-P124.minimised.mol

>  <scratch_subdir>  (905) 
/opt/xchem-fragalysis-2/maxwin/BulkDock/SCRATCH/511018/C6051-P124

>  <fragmenstein_runtime>  (905) 
29.708547115325928

>  <fragmenstein_outcome>  (905) 
too moved

>  <fragmenstein_mode>  (905) 
expansion

>  <fragmenstein_error>  (905) 


$$$$
C6051-P49
     RDKit          3D

 41 44  0  0  0  0  0  0  0  0999 V2000
   -1.3341  -18.0646   19.5605 O   0  0  0  0  0  0  0  0  0  0  0  0
   -1.8995  -18.3985   18.5844 C   0  0  0  0  0  0  0  0  0  0  0  0
   -3.1988  -19.0641   18.4181 N   0  0  0  0  0  0  0  0  0  0  0  0
   -4.1402  -19.6026   19.4151 C   0  0  0  0  0  0  0  0  0  0  0  0
   -3.5389  -20.5987   20.4090 C   0  0  0  0  0  0  0  0  0  0  0  0
   -4.6737  -20.8152   21.4202 C   0  0  0  0  0  0  0  0  0  0  0  0
   -5.3819  -19.5199   21.4746 N   0  0  0  0  0  0  0  0  0  0  0  0
   -6.7812  -19.6092   21.5404 C   0  0  0  0  0  0  0  0  0  0  0  0
   -7.5429  -18.4463   21.6558 C   0  0  0  0  0  0  0  0  0  0  0  0
   -8.9338  -18.5152   21.6067 C   0  0  0  0  0  0  0  0  0  0  0  0
   -9.5496  -19.7505   21.4738 C   0  0  0  0  0  0  0  0  0  0  0  0
   -8.7366  -20.8615   21.4303 C   0  0  0  0  0  0  0  0  0  0  0  0
   -7.3867  -20.8119   21.4825 N   0  0  0  0  0  0  0  0  0  0  0  0
   -4.8486  -18.6419   20.3953 C   0  0  0  0  0  0  0  0  0  0  0  0
   -1.4593  -18.3602   17.1529 N   0  0  0  0  0  0  0  0  0  0  0  0
   -0.0999  -17.9838   16.5370 C   0  0  0  0  0  0  0  0  0  0  0  0
    0.0070  -16.7385   15.6564 C   0  0  0  0  0  0  0  0  0  0  0  0
   -1.3519  -16.8513   15.0828 C   0  0  0  0  0  0  0  0  0  0  0  0
   -1.8759  -17.0173   16.5013 C   0  0  0  0  0  0  0  0  0  0  0  0
   -1.2935  -15.7440   17.1664 C   0  0  0  0  0  0  0  0  0  0  0  0
   -0.0340  -15.5708   16.4841 O   0  0  0  0  0  0  0  0  0  0  0  0
   -3.3391  -19.2778   17.4392 H   0  0  0  0  0  0  0  0  0  0  0  0
   -4.9096  -20.1199   18.8259 H   0  0  0  0  0  0  0  0  0  0  0  0
   -3.2264  -21.5331   19.9326 H   0  0  0  0  0  0  0  0  0  0  0  0
   -2.6627  -20.1698   20.9104 H   0  0  0  0  0  0  0  0  0  0  0  0
   -5.2857  -21.6475   21.0548 H   0  0  0  0  0  0  0  0  0  0  0  0
   -4.2808  -21.0819   22.4066 H   0  0  0  0  0  0  0  0  0  0  0  0
   -7.0542  -17.4838   21.7594 H   0  0  0  0  0  0  0  0  0  0  0  0
   -9.5225  -17.6069   21.6524 H   0  0  0  0  0  0  0  0  0  0  0  0
  -10.6264  -19.8531   21.4144 H   0  0  0  0  0  0  0  0  0  0  0  0
   -9.1534  -21.8507   21.3131 H   0  0  0  0  0  0  0  0  0  0  0  0
   -4.1303  -17.9406   20.8365 H   0  0  0  0  0  0  0  0  0  0  0  0
   -5.6080  -18.0541   19.8673 H   0  0  0  0  0  0  0  0  0  0  0  0
    0.1661  -18.8683   15.9409 H   0  0  0  0  0  0  0  0  0  0  0  0
    0.6076  -17.9520   17.3647 H   0  0  0  0  0  0  0  0  0  0  0  0
    0.8506  -16.7144   14.9651 H   0  0  0  0  0  0  0  0  0  0  0  0
   -1.7127  -15.9394   14.5973 H   0  0  0  0  0  0  0  0  0  0  0  0
   -1.5189  -17.7257   14.4468 H   0  0  0  0  0  0  0  0  0  0  0  0
   -2.9708  -16.9896   16.5470 H   0  0  0  0  0  0  0  0  0  0  0  0
   -1.1320  -15.8380   18.2415 H   0  0  0  0  0  0  0  0  0  0  0  0
   -1.9236  -14.8780   16.9438 H   0  0  0  0  0  0  0  0  0  0  0  0
  1  2  2  0
  2  3  1  0
  3  4  1  0
  4  5  1  0
  5  6  1  0
  6  7  1  0
  7  8  1  0
  8  9  2  0
  9 10  1  0
 10 11  2  0
 11 12  1  0
 12 13  2  0
  7 14  1  0
  2 15  1  0
 15 16  1  0
 16 17  1  0
 17 18  1  0
 18 19  1  0
 19 20  1  0
 20 21  1  0
 14  4  1  0
 19 15  1  0
 13  8  1  0
 21 17  1  0
  3 22  1  0
  4 23  1  0
  5 24  1  0
  5 25  1  0
  6 26  1  0
  6 27  1  0
  9 28  1  0
 10 29  1  0
 11 30  1  0
 12 31  1  0
 14 32  1  0
 14 33  1  0
 16 34  1  0
 16 35  1  0
 17 36  1  0
 18 37  1  0
 18 38  1  0
 19 39  1  0
 20 40  1  0
 20 41  1  0
M  END
>  <Energy>  (906) 
50.157649884953955

>  <compound_id>  (906) 
6051

>  <target_id>  (906) 
1

>  <reference_id>  (906) 
49

>  <inspiration_ids>  (906) 
[124, 49]

>  <energy_score>  (906) 
39.843776295987595

>  <distance_score>  (906) 
15.164876967259852

>  <path>  (906) 
/opt/xchem-fragalysis-2/maxwin/BulkDock/SCRATCH/511018/C6051-P49/C6051-P49.minimised.mol

>  <scratch_subdir>  (906) 
/opt/xchem-fragalysis-2/maxwin/BulkDock/SCRATCH/511018/C6051-P49

>  <fragmenstein_runtime>  (906) 
22.371206998825073

>  <fragmenstein_outcome>  (906) 
too moved

>  <fragmenstein_mode>  (906) 
expansion

>  <fragmenstein_error>  (906) 


$$$$
C6088-P124
     RDKit          3D

 53 54  0  0  0  0  0  0  0  0999 V2000
    3.6027   -9.6491   17.3626 C   0  0  0  0  0  0  0  0  0  0  0  0
    2.7704  -10.3753   18.4345 C   0  0  0  0  0  0  0  0  0  0  0  0
    2.2546   -9.3420   19.4496 C   0  0  0  0  0  0  0  0  0  0  0  0
    1.7164  -11.2839   17.8703 N   0  0  0  0  0  0  0  0  0  0  0  0
    0.6413  -10.5558   17.1923 C   0  0  0  0  0  0  0  0  0  0  0  0
    1.1363  -12.1964   18.9376 C   0  0  0  0  0  0  0  0  0  0  0  0
    0.1169  -13.3679   18.5192 C   0  0  0  0  0  0  0  0  0  0  0  0
   -0.2246  -13.5243   17.3809 O   0  0  0  0  0  0  0  0  0  0  0  0
   -0.2246  -14.1261   19.7339 N   0  0  0  0  0  0  0  0  0  0  0  0
   -1.0066  -15.3621   19.9134 C   0  0  0  0  0  0  0  0  0  0  0  0
   -2.5561  -15.3952   19.5553 C   0  0  0  0  0  0  0  0  0  0  0  0
   -2.8171  -15.8034   18.1188 C   0  0  0  0  0  0  0  0  0  0  0  0
   -2.9341  -17.2805   18.3069 C   0  0  0  0  0  0  0  0  0  0  0  0
   -2.8876  -17.3814   19.8200 C   0  0  0  0  0  0  0  0  0  0  0  0
   -3.5757  -16.2212   20.4804 N   0  0  0  0  0  0  0  0  0  0  0  0
   -3.6109  -16.4070   21.9070 C   0  0  0  0  0  0  0  0  0  0  0  0
   -2.8315  -16.0623   22.7584 O   0  0  0  0  0  0  0  0  0  0  0  0
   -4.9211  -17.1661   22.3881 C   0  0  0  0  0  0  0  0  0  0  0  0
   -4.6693  -17.8178   23.6513 O   0  0  0  0  0  0  0  0  0  0  0  0
   -5.6685  -18.1554   24.5270 C   0  0  0  0  0  0  0  0  0  0  0  0
   -5.2403  -18.5227   25.8081 C   0  0  0  0  0  0  0  0  0  0  0  0
   -6.1592  -18.8416   26.8071 C   0  0  0  0  0  0  0  0  0  0  0  0
   -7.5009  -18.8269   26.4815 C   0  0  0  0  0  0  0  0  0  0  0  0
   -7.9706  -18.5169   25.2511 N   0  0  0  0  0  0  0  0  0  0  0  0
   -7.0389  -18.1821   24.3073 C   0  0  0  0  0  0  0  0  0  0  0  0
    4.3956   -9.0864   17.8581 H   0  0  0  0  0  0  0  0  0  0  0  0
    4.0613  -10.3637   16.6718 H   0  0  0  0  0  0  0  0  0  0  0  0
    3.0070   -8.9369   16.7840 H   0  0  0  0  0  0  0  0  0  0  0  0
    3.4831  -11.0203   18.9663 H   0  0  0  0  0  0  0  0  0  0  0  0
    3.0923   -8.7789   19.8771 H   0  0  0  0  0  0  0  0  0  0  0  0
    1.5775   -8.6174   18.9861 H   0  0  0  0  0  0  0  0  0  0  0  0
    1.7341   -9.8145   20.2869 H   0  0  0  0  0  0  0  0  0  0  0  0
    0.0232   -9.9790   17.8886 H   0  0  0  0  0  0  0  0  0  0  0  0
    1.0359   -9.8719   16.4350 H   0  0  0  0  0  0  0  0  0  0  0  0
   -0.0171  -11.2362   16.6458 H   0  0  0  0  0  0  0  0  0  0  0  0
    1.9884  -12.7124   19.3938 H   0  0  0  0  0  0  0  0  0  0  0  0
    0.6188  -11.5984   19.6960 H   0  0  0  0  0  0  0  0  0  0  0  0
    0.3171  -13.7608   20.5206 H   0  0  0  0  0  0  0  0  0  0  0  0
   -0.8874  -15.6079   20.9730 H   0  0  0  0  0  0  0  0  0  0  0  0
   -0.4713  -16.1254   19.3367 H   0  0  0  0  0  0  0  0  0  0  0  0
   -2.9026  -14.3623   19.6890 H   0  0  0  0  0  0  0  0  0  0  0  0
   -2.0277  -15.5175   17.4200 H   0  0  0  0  0  0  0  0  0  0  0  0
   -3.7652  -15.3873   17.7598 H   0  0  0  0  0  0  0  0  0  0  0  0
   -2.1181  -17.8421   17.8427 H   0  0  0  0  0  0  0  0  0  0  0  0
   -3.8823  -17.6515   17.9034 H   0  0  0  0  0  0  0  0  0  0  0  0
   -1.8941  -17.5851   20.2450 H   0  0  0  0  0  0  0  0  0  0  0  0
   -3.4562  -18.2776   20.1065 H   0  0  0  0  0  0  0  0  0  0  0  0
   -5.7051  -16.4086   22.4962 H   0  0  0  0  0  0  0  0  0  0  0  0
   -5.2135  -17.9192   21.6513 H   0  0  0  0  0  0  0  0  0  0  0  0
   -4.1771  -18.5161   26.0390 H   0  0  0  0  0  0  0  0  0  0  0  0
   -5.8233  -19.0561   27.8148 H   0  0  0  0  0  0  0  0  0  0  0  0
   -8.2519  -19.0579   27.2261 H   0  0  0  0  0  0  0  0  0  0  0  0
   -7.4599  -17.9319   23.3391 H   0  0  0  0  0  0  0  0  0  0  0  0
  1  2  1  0
  2  3  1  0
  2  4  1  0
  4  5  1  0
  4  6  1  0
  6  7  1  0
  7  8  2  0
  7  9  1  0
  9 10  1  0
 10 11  1  0
 11 12  1  0
 12 13  1  0
 13 14  1  0
 14 15  1  0
 15 16  1  0
 16 17  2  0
 16 18  1  0
 18 19  1  0
 19 20  1  0
 20 21  2  0
 21 22  1  0
 22 23  2  0
 23 24  1  0
 24 25  2  0
 15 11  1  0
 25 20  1  0
  1 26  1  0
  1 27  1  0
  1 28  1  0
  2 29  1  0
  3 30  1  0
  3 31  1  0
  3 32  1  0
  5 33  1  0
  5 34  1  0
  5 35  1  0
  6 36  1  0
  6 37  1  0
  9 38  1  0
 10 39  1  0
 10 40  1  0
 11 41  1  0
 12 42  1  0
 12 43  1  0
 13 44  1  0
 13 45  1  0
 14 46  1  0
 14 47  1  0
 18 48  1  0
 18 49  1  0
 21 50  1  0
 22 51  1  0
 23 52  1  0
 25 53  1  0
M  END
>  <Energy>  (907) 
187.07978165239459

>  <compound_id>  (907) 
6088

>  <target_id>  (907) 
1

>  <reference_id>  (907) 
124

>  <inspiration_ids>  (907) 
[124, 49]

>  <energy_score>  (907) 
26.24063513720199

>  <distance_score>  (907) 
18.063372406948552

>  <path>  (907) 
/opt/xchem-fragalysis-2/maxwin/BulkDock/SCRATCH/511018/C6088-P124/C6088-P124.minimised.mol

>  <scratch_subdir>  (907) 
/opt/xchem-fragalysis-2/maxwin/BulkDock/SCRATCH/511018/C6088-P124

>  <fragmenstein_runtime>  (907) 
71.2997932434082

>  <fragmenstein_outcome>  (907) 
too moved

>  <fragmenstein_mode>  (907) 
expansion

>  <fragmenstein_error>  (907) 


$$$$
C6088-P49
     RDKit          3D

 53 54  0  0  0  0  0  0  0  0999 V2000
    6.4143   -5.1682   24.3066 C   0  0  0  0  0  0  0  0  0  0  0  0
    5.6880   -6.1576   25.2527 C   0  0  0  0  0  0  0  0  0  0  0  0
    6.4395   -7.4965   25.2513 C   0  0  0  0  0  0  0  0  0  0  0  0
    5.3998   -5.6117   26.6205 N   0  0  0  0  0  0  0  0  0  0  0  0
    6.6030   -5.1492   27.3167 C   0  0  0  0  0  0  0  0  0  0  0  0
    4.6263   -6.5776   27.5252 C   0  0  0  0  0  0  0  0  0  0  0  0
    3.9550   -5.9403   28.8580 C   0  0  0  0  0  0  0  0  0  0  0  0
    3.9756   -4.7492   29.0109 O   0  0  0  0  0  0  0  0  0  0  0  0
    3.3892   -7.0067   29.7070 N   0  0  0  0  0  0  0  0  0  0  0  0
    2.5818   -6.9320   30.9670 C   0  0  0  0  0  0  0  0  0  0  0  0
    2.5493   -8.2422   31.8886 C   0  0  0  0  0  0  0  0  0  0  0  0
    3.8336   -8.4115   32.6887 C   0  0  0  0  0  0  0  0  0  0  0  0
    3.3789   -7.8879   34.0075 C   0  0  0  0  0  0  0  0  0  0  0  0
    1.9167   -7.6286   33.7077 C   0  0  0  0  0  0  0  0  0  0  0  0
    1.3039   -8.6478   32.7921 N   0  0  0  0  0  0  0  0  0  0  0  0
    1.0193   -9.8841   33.5260 C   0  0  0  0  0  0  0  0  0  0  0  0
    1.7016  -10.8661   33.6986 O   0  0  0  0  0  0  0  0  0  0  0  0
   -0.4383   -9.9148   34.2169 C   0  0  0  0  0  0  0  0  0  0  0  0
   -1.4997  -10.7424   33.7046 O   0  0  0  0  0  0  0  0  0  0  0  0
   -2.0274  -11.8423   34.3510 C   0  0  0  0  0  0  0  0  0  0  0  0
   -3.3300  -12.2140   33.9971 C   0  0  0  0  0  0  0  0  0  0  0  0
   -3.9367  -13.3955   34.4461 C   0  0  0  0  0  0  0  0  0  0  0  0
   -3.2061  -14.2032   35.2849 C   0  0  0  0  0  0  0  0  0  0  0  0
   -1.9545  -13.8878   35.6841 N   0  0  0  0  0  0  0  0  0  0  0  0
   -1.3958  -12.7255   35.2067 C   0  0  0  0  0  0  0  0  0  0  0  0
    7.4590   -5.0191   24.5971 H   0  0  0  0  0  0  0  0  0  0  0  0
    5.9099   -4.1962   24.3049 H   0  0  0  0  0  0  0  0  0  0  0  0
    6.4048   -5.5487   23.2791 H   0  0  0  0  0  0  0  0  0  0  0  0
    4.7066   -6.3392   24.7944 H   0  0  0  0  0  0  0  0  0  0  0  0
    6.5677   -7.8598   24.2253 H   0  0  0  0  0  0  0  0  0  0  0  0
    7.4359   -7.4051   25.6948 H   0  0  0  0  0  0  0  0  0  0  0  0
    5.8897   -8.2712   25.7946 H   0  0  0  0  0  0  0  0  0  0  0  0
    6.3604   -4.6938   28.2815 H   0  0  0  0  0  0  0  0  0  0  0  0
    7.3127   -5.9616   27.5041 H   0  0  0  0  0  0  0  0  0  0  0  0
    7.1135   -4.3654   26.7487 H   0  0  0  0  0  0  0  0  0  0  0  0
    5.2913   -7.3871   27.8454 H   0  0  0  0  0  0  0  0  0  0  0  0
    3.7926   -6.9921   26.9464 H   0  0  0  0  0  0  0  0  0  0  0  0
    3.4804   -7.9043   29.2227 H   0  0  0  0  0  0  0  0  0  0  0  0
    2.9717   -6.0755   31.5288 H   0  0  0  0  0  0  0  0  0  0  0  0
    1.5715   -6.6597   30.6619 H   0  0  0  0  0  0  0  0  0  0  0  0
    2.5119   -9.0543   31.1622 H   0  0  0  0  0  0  0  0  0  0  0  0
    4.1099   -9.4672   32.7831 H   0  0  0  0  0  0  0  0  0  0  0  0
    4.6883   -7.8695   32.2745 H   0  0  0  0  0  0  0  0  0  0  0  0
    3.8964   -6.9740   34.3130 H   0  0  0  0  0  0  0  0  0  0  0  0
    3.5081   -8.6379   34.7952 H   0  0  0  0  0  0  0  0  0  0  0  0
    1.7167   -6.6133   33.3348 H   0  0  0  0  0  0  0  0  0  0  0  0
    1.3661   -7.6705   34.6580 H   0  0  0  0  0  0  0  0  0  0  0  0
   -0.2751  -10.1203   35.2824 H   0  0  0  0  0  0  0  0  0  0  0  0
   -0.8226   -8.8887   34.1714 H   0  0  0  0  0  0  0  0  0  0  0  0
   -3.8804  -11.5626   33.3408 H   0  0  0  0  0  0  0  0  0  0  0  0
   -4.9420  -13.6581   34.1411 H   0  0  0  0  0  0  0  0  0  0  0  0
   -3.6038  -15.1340   35.6755 H   0  0  0  0  0  0  0  0  0  0  0  0
   -0.3656  -12.5714   35.5152 H   0  0  0  0  0  0  0  0  0  0  0  0
  1  2  1  0
  2  3  1  0
  2  4  1  0
  4  5  1  0
  4  6  1  0
  6  7  1  0
  7  8  2  0
  7  9  1  0
  9 10  1  0
 10 11  1  0
 11 12  1  0
 12 13  1  0
 13 14  1  0
 14 15  1  0
 15 16  1  0
 16 17  2  0
 16 18  1  0
 18 19  1  0
 19 20  1  0
 20 21  2  0
 21 22  1  0
 22 23  2  0
 23 24  1  0
 24 25  2  0
 15 11  1  0
 25 20  1  0
  1 26  1  0
  1 27  1  0
  1 28  1  0
  2 29  1  0
  3 30  1  0
  3 31  1  0
  3 32  1  0
  5 33  1  0
  5 34  1  0
  5 35  1  0
  6 36  1  0
  6 37  1  0
  9 38  1  0
 10 39  1  0
 10 40  1  0
 11 41  1  0
 12 42  1  0
 12 43  1  0
 13 44  1  0
 13 45  1  0
 14 46  1  0
 14 47  1  0
 18 48  1  0
 18 49  1  0
 21 50  1  0
 22 51  1  0
 23 52  1  0
 25 53  1  0
M  END
>  <Energy>  (908) 
199.62685469174437

>  <compound_id>  (908) 
6088

>  <target_id>  (908) 
1

>  <reference_id>  (908) 
49

>  <inspiration_ids>  (908) 
[124, 49]

>  <energy_score>  (908) 
38.78770817655857

>  <distance_score>  (908) 
17.77347579056124

>  <path>  (908) 
/opt/xchem-fragalysis-2/maxwin/BulkDock/SCRATCH/511018/C6088-P49/C6088-P49.minimised.mol

>  <scratch_subdir>  (908) 
/opt/xchem-fragalysis-2/maxwin/BulkDock/SCRATCH/511018/C6088-P49

>  <fragmenstein_runtime>  (908) 
41.686681270599365

>  <fragmenstein_outcome>  (908) 
too moved

>  <fragmenstein_mode>  (908) 
expansion

>  <fragmenstein_error>  (908) 


$$$$
C6094-P124
     RDKit          3D

 42 43  0  0  0  0  0  0  0  0999 V2000
    5.3680    0.0381   17.6744 C   0  0  0  0  0  0  0  0  0  0  0  0
    5.2187   -0.9753   18.6568 O   0  0  0  0  0  0  0  0  0  0  0  0
    3.9534   -1.6796   18.5907 C   0  0  0  0  0  0  0  0  0  0  0  0
    3.8676   -2.9832   19.4962 C   0  0  0  0  0  0  0  0  0  0  0  0
    3.2087   -4.1596   18.8057 N   0  0  0  0  0  0  0  0  0  0  0  0
    1.8177   -4.5851   18.7658 C   0  0  0  0  0  0  0  0  0  0  0  0
    0.8585   -4.1583   19.3316 O   0  0  0  0  0  0  0  0  0  0  0  0
    1.6270   -5.7930   17.7151 C   0  0  0  0  0  0  0  0  0  0  0  0
    2.5240   -5.9043   16.8722 O   0  0  0  0  0  0  0  0  0  0  0  0
    0.4735   -6.6133   17.6610 N   0  0  0  0  0  0  0  0  0  0  0  0
   -0.7191   -6.2425   16.9321 C   0  0  0  0  0  0  0  0  0  0  0  0
   -1.8351   -7.2376   17.3266 C   0  0  0  0  0  0  0  0  0  0  0  0
   -1.1461   -8.4605   17.9470 C   0  0  0  0  0  0  0  0  0  0  0  0
   -2.0093   -9.1615   19.0552 C   0  0  0  0  0  0  0  0  0  0  0  0
    0.2904   -7.9256   18.3025 C   0  0  0  0  0  0  0  0  0  0  0  0
    5.2656   -3.2952   20.0620 C   0  0  0  0  0  0  0  0  0  0  0  0
    5.8884   -2.4660   21.2107 C   0  0  0  0  0  0  0  0  0  0  0  0
    7.2507   -2.9042   21.8476 C   0  0  0  0  0  0  0  0  0  0  0  0
    8.1014   -4.1063   21.2943 C   0  0  0  0  0  0  0  0  0  0  0  0
    7.6528   -4.9454   20.1382 N   0  0  0  0  0  0  0  0  0  0  0  0
    6.2307   -4.5633   19.5020 C   0  0  0  0  0  0  0  0  0  0  0  0
    4.6336    0.8307   17.8457 H   0  0  0  0  0  0  0  0  0  0  0  0
    6.3703    0.4653   17.7617 H   0  0  0  0  0  0  0  0  0  0  0  0
    5.2383   -0.3682   16.6690 H   0  0  0  0  0  0  0  0  0  0  0  0
    3.7325   -1.9434   17.5492 H   0  0  0  0  0  0  0  0  0  0  0  0
    3.1657   -0.9861   18.9099 H   0  0  0  0  0  0  0  0  0  0  0  0
    3.2101   -2.7560   20.3442 H   0  0  0  0  0  0  0  0  0  0  0  0
    3.7399   -4.7004   18.1304 H   0  0  0  0  0  0  0  0  0  0  0  0
   -0.9880   -5.2032   17.1438 H   0  0  0  0  0  0  0  0  0  0  0  0
   -0.4910   -6.3252   15.8637 H   0  0  0  0  0  0  0  0  0  0  0  0
   -2.4162   -7.5224   16.4416 H   0  0  0  0  0  0  0  0  0  0  0  0
   -2.5490   -6.7505   17.9955 H   0  0  0  0  0  0  0  0  0  0  0  0
   -1.0182   -9.1932   17.1375 H   0  0  0  0  0  0  0  0  0  0  0  0
   -3.0306   -8.7665   19.0657 H   0  0  0  0  0  0  0  0  0  0  0  0
   -2.0986  -10.2332   18.8488 H   0  0  0  0  0  0  0  0  0  0  0  0
   -1.5772   -9.0314   20.0515 H   0  0  0  0  0  0  0  0  0  0  0  0
    0.5101   -7.9016   19.3632 H   0  0  0  0  0  0  0  0  0  0  0  0
    1.0507   -8.5725   17.8493 H   0  0  0  0  0  0  0  0  0  0  0  0
    5.3396   -1.6280   21.6308 H   0  0  0  0  0  0  0  0  0  0  0  0
    7.5805   -2.3792   22.7410 H   0  0  0  0  0  0  0  0  0  0  0  0
    9.0310   -4.4304   21.7538 H   0  0  0  0  0  0  0  0  0  0  0  0
    5.9271   -5.2473   18.7014 H   0  0  0  0  0  0  0  0  0  0  0  0
  1  2  1  0
  2  3  1  0
  3  4  1  0
  4  5  1  0
  5  6  1  0
  6  7  2  0
  6  8  1  0
  8  9  2  0
  8 10  1  0
 10 11  1  0
 11 12  1  0
 12 13  1  0
 13 14  1  0
 13 15  1  0
  4 16  1  0
 16 17  2  0
 17 18  1  0
 18 19  2  0
 19 20  1  0
 20 21  2  0
 15 10  1  0
 21 16  1  0
  1 22  1  0
  1 23  1  0
  1 24  1  0
  3 25  1  0
  3 26  1  0
  4 27  1  0
  5 28  1  0
 11 29  1  0
 11 30  1  0
 12 31  1  0
 12 32  1  0
 13 33  1  0
 14 34  1  0
 14 35  1  0
 14 36  1  0
 15 37  1  0
 15 38  1  0
 17 39  1  0
 18 40  1  0
 19 41  1  0
 21 42  1  0
M  END
>  <Energy>  (909) 
206.92501853164202

>  <compound_id>  (909) 
6094

>  <target_id>  (909) 
1

>  <reference_id>  (909) 
124

>  <inspiration_ids>  (909) 
[124, 49]

>  <energy_score>  (909) 
93.0593144420684

>  <distance_score>  (909) 
17.61540805517246

>  <path>  (909) 
/opt/xchem-fragalysis-2/maxwin/BulkDock/SCRATCH/511018/C6094-P124/C6094-P124.minimised.mol

>  <scratch_subdir>  (909) 
/opt/xchem-fragalysis-2/maxwin/BulkDock/SCRATCH/511018/C6094-P124

>  <fragmenstein_runtime>  (909) 
42.78057384490967

>  <fragmenstein_outcome>  (909) 
too moved

>  <fragmenstein_mode>  (909) 
expansion

>  <fragmenstein_error>  (909) 


$$$$
C6094-P49
     RDKit          3D

 42 43  0  0  0  0  0  0  0  0999 V2000
   10.6335   -6.5375   21.3307 C   0  0  0  0  0  0  0  0  0  0  0  0
    9.2794   -6.1441   21.5723 O   0  0  0  0  0  0  0  0  0  0  0  0
    8.7445   -6.5919   22.8408 C   0  0  0  0  0  0  0  0  0  0  0  0
    7.5146   -5.6863   23.3097 C   0  0  0  0  0  0  0  0  0  0  0  0
    6.7015   -6.2791   24.4299 N   0  0  0  0  0  0  0  0  0  0  0  0
    5.4209   -5.8549   25.0222 C   0  0  0  0  0  0  0  0  0  0  0  0
    4.7474   -4.8862   24.8140 O   0  0  0  0  0  0  0  0  0  0  0  0
    4.8470   -6.9817   26.0271 C   0  0  0  0  0  0  0  0  0  0  0  0
    5.6583   -7.7312   26.5541 O   0  0  0  0  0  0  0  0  0  0  0  0
    3.4280   -7.0730   26.1322 N   0  0  0  0  0  0  0  0  0  0  0  0
    2.9417   -6.0674   27.5533 C   0  0  0  0  0  0  0  0  0  0  0  0
    2.5750   -6.8007   28.9616 C   0  0  0  0  0  0  0  0  0  0  0  0
    1.6432   -7.5296   28.1445 C   0  0  0  0  0  0  0  0  0  0  0  0
    0.1659   -7.3962   28.4962 C   0  0  0  0  0  0  0  0  0  0  0  0
    2.3314   -6.5181   27.0768 C   0  0  0  0  0  0  0  0  0  0  0  0
    7.9425   -4.2261   23.3975 C   0  0  0  0  0  0  0  0  0  0  0  0
    7.0416   -3.2017   23.0848 C   0  0  0  0  0  0  0  0  0  0  0  0
    7.4817   -1.8828   22.9753 C   0  0  0  0  0  0  0  0  0  0  0  0
    8.8270   -1.6174   23.1565 C   0  0  0  0  0  0  0  0  0  0  0  0
    9.7310   -2.5631   23.4680 N   0  0  0  0  0  0  0  0  0  0  0  0
    9.2686   -3.8288   23.5950 C   0  0  0  0  0  0  0  0  0  0  0  0
   10.7160   -7.6274   21.3643 H   0  0  0  0  0  0  0  0  0  0  0  0
   10.9217   -6.1870   20.3366 H   0  0  0  0  0  0  0  0  0  0  0  0
   11.2944   -6.0839   22.0744 H   0  0  0  0  0  0  0  0  0  0  0  0
    8.3916   -7.6206   22.7020 H   0  0  0  0  0  0  0  0  0  0  0  0
    9.5224   -6.6177   23.6126 H   0  0  0  0  0  0  0  0  0  0  0  0
    6.8153   -5.7159   22.4619 H   0  0  0  0  0  0  0  0  0  0  0  0
    7.0284   -7.1192   24.9073 H   0  0  0  0  0  0  0  0  0  0  0  0
    2.9720   -4.8600   27.4607 H   0  0  0  0  0  0  0  0  0  0  0  0
    4.0434   -5.9084   27.9016 H   0  0  0  0  0  0  0  0  0  0  0  0
    3.4107   -7.3532   29.3928 H   0  0  0  0  0  0  0  0  0  0  0  0
    2.1511   -6.0846   29.6724 H   0  0  0  0  0  0  0  0  0  0  0  0
    1.8582   -8.5465   27.8468 H   0  0  0  0  0  0  0  0  0  0  0  0
   -0.0950   -8.0553   29.3291 H   0  0  0  0  0  0  0  0  0  0  0  0
   -0.0811   -6.3704   28.7907 H   0  0  0  0  0  0  0  0  0  0  0  0
   -0.4559   -7.6375   27.6305 H   0  0  0  0  0  0  0  0  0  0  0  0
    1.5261   -5.6881   26.5821 H   0  0  0  0  0  0  0  0  0  0  0  0
    1.6360   -7.1083   26.3517 H   0  0  0  0  0  0  0  0  0  0  0  0
    5.9909   -3.4246   22.9101 H   0  0  0  0  0  0  0  0  0  0  0  0
    6.7892   -1.0825   22.7391 H   0  0  0  0  0  0  0  0  0  0  0  0
    9.2208   -0.6096   23.0606 H   0  0  0  0  0  0  0  0  0  0  0  0
   10.0544   -4.5333   23.8474 H   0  0  0  0  0  0  0  0  0  0  0  0
  1  2  1  0
  2  3  1  0
  3  4  1  0
  4  5  1  0
  5  6  1  0
  6  7  2  0
  6  8  1  0
  8  9  2  0
  8 10  1  0
 10 11  1  0
 11 12  1  0
 12 13  1  0
 13 14  1  0
 13 15  1  0
  4 16  1  0
 16 17  2  0
 17 18  1  0
 18 19  2  0
 19 20  1  0
 20 21  2  0
 15 10  1  0
 21 16  1  0
  1 22  1  0
  1 23  1  0
  1 24  1  0
  3 25  1  0
  3 26  1  0
  4 27  1  0
  5 28  1  0
 11 29  1  0
 11 30  1  0
 12 31  1  0
 12 32  1  0
 13 33  1  0
 14 34  1  0
 14 35  1  0
 14 36  1  0
 15 37  1  0
 15 38  1  0
 17 39  1  0
 18 40  1  0
 19 41  1  0
 21 42  1  0
M  END
>  <Energy>  (910) 
642.18206998539597

>  <compound_id>  (910) 
6094

>  <target_id>  (910) 
1

>  <reference_id>  (910) 
49

>  <inspiration_ids>  (910) 
[124, 49]

>  <energy_score>  (910) 
528.3163658958268

>  <distance_score>  (910) 
16.423650899549934

>  <path>  (910) 
/opt/xchem-fragalysis-2/maxwin/BulkDock/SCRATCH/511018/C6094-P49/C6094-P49.minimised.mol

>  <scratch_subdir>  (910) 
/opt/xchem-fragalysis-2/maxwin/BulkDock/SCRATCH/511018/C6094-P49

>  <fragmenstein_runtime>  (910) 
23.84377145767212

>  <fragmenstein_outcome>  (910) 
too moved

>  <fragmenstein_mode>  (910) 
expansion

>  <fragmenstein_error>  (910) 


$$$$
C6095-P124
     RDKit          3D

 46 48  0  0  0  0  0  0  0  0999 V2000
   -3.6231  -19.8152   26.1255 C   0  0  0  0  0  0  0  0  0  0  0  0
   -2.2838  -20.0690   25.6788 O   0  0  0  0  0  0  0  0  0  0  0  0
   -1.3019  -19.6152   26.6265 C   0  0  0  0  0  0  0  0  0  0  0  0
    0.1296  -20.2774   26.4724 C   0  0  0  0  0  0  0  0  0  0  0  0
    0.9635  -19.9305   25.2605 N   0  0  0  0  0  0  0  0  0  0  0  0
    2.3458  -19.3806   25.1534 C   0  0  0  0  0  0  0  0  0  0  0  0
    3.1627  -19.1533   26.0025 O   0  0  0  0  0  0  0  0  0  0  0  0
    2.7702  -19.0049   23.6256 C   0  0  0  0  0  0  0  0  0  0  0  0
    2.1431  -19.6092   22.7872 O   0  0  0  0  0  0  0  0  0  0  0  0
    3.8294  -17.9616   23.4770 N   0  0  0  0  0  0  0  0  0  0  0  0
    5.1782  -18.5989   23.4303 C   0  0  0  0  0  0  0  0  0  0  0  0
    5.4699  -19.2649   22.0979 C   0  0  0  0  0  0  0  0  0  0  0  0
    4.7984  -18.3112   21.1652 C   0  0  0  0  0  0  0  0  0  0  0  0
    4.3944  -17.2190   22.1582 C   0  0  0  0  0  0  0  0  0  0  0  0
    5.3714  -15.9500   22.1430 C   0  0  0  0  0  0  0  0  0  0  0  0
    6.7239  -15.9961   21.7207 C   0  0  0  0  0  0  0  0  0  0  0  0
    7.4774  -14.8271   21.4796 C   0  0  0  0  0  0  0  0  0  0  0  0
    6.8721  -13.6016   21.6719 C   0  0  0  0  0  0  0  0  0  0  0  0
    5.5997  -13.4854   22.0950 N   0  0  0  0  0  0  0  0  0  0  0  0
    4.8880  -14.6436   22.3087 C   0  0  0  0  0  0  0  0  0  0  0  0
    0.0785  -21.7816   26.7295 C   0  0  0  0  0  0  0  0  0  0  0  0
   -0.3582  -22.2872   28.1016 C   0  0  0  0  0  0  0  0  0  0  0  0
   -1.1741  -22.6355   26.8982 C   0  0  0  0  0  0  0  0  0  0  0  0
   -3.7515  -18.7516   26.3445 H   0  0  0  0  0  0  0  0  0  0  0  0
   -4.3100  -20.1013   25.3251 H   0  0  0  0  0  0  0  0  0  0  0  0
   -3.8412  -20.4177   27.0104 H   0  0  0  0  0  0  0  0  0  0  0  0
   -1.6680  -19.8110   27.6413 H   0  0  0  0  0  0  0  0  0  0  0  0
   -1.2081  -18.5330   26.5238 H   0  0  0  0  0  0  0  0  0  0  0  0
    0.7249  -19.8606   27.2963 H   0  0  0  0  0  0  0  0  0  0  0  0
    0.5854  -20.0693   24.3248 H   0  0  0  0  0  0  0  0  0  0  0  0
    5.1991  -19.3792   24.2034 H   0  0  0  0  0  0  0  0  0  0  0  0
    5.9534  -17.8899   23.7548 H   0  0  0  0  0  0  0  0  0  0  0  0
    5.0218  -20.2619   22.0303 H   0  0  0  0  0  0  0  0  0  0  0  0
    6.5455  -19.3601   21.9236 H   0  0  0  0  0  0  0  0  0  0  0  0
    5.4303  -17.9814   20.3367 H   0  0  0  0  0  0  0  0  0  0  0  0
    3.9092  -18.7836   20.7303 H   0  0  0  0  0  0  0  0  0  0  0  0
    3.4641  -16.7995   21.7440 H   0  0  0  0  0  0  0  0  0  0  0  0
    7.2078  -16.9516   21.5325 H   0  0  0  0  0  0  0  0  0  0  0  0
    8.5053  -14.8899   21.1407 H   0  0  0  0  0  0  0  0  0  0  0  0
    7.3983  -12.6694   21.4974 H   0  0  0  0  0  0  0  0  0  0  0  0
    3.8509  -14.4707   22.5950 H   0  0  0  0  0  0  0  0  0  0  0  0
    0.9545  -22.2709   26.3109 H   0  0  0  0  0  0  0  0  0  0  0  0
    0.2379  -23.0714   28.5573 H   0  0  0  0  0  0  0  0  0  0  0  0
   -0.7732  -21.5899   28.8193 H   0  0  0  0  0  0  0  0  0  0  0  0
   -1.1280  -23.6560   26.5298 H   0  0  0  0  0  0  0  0  0  0  0  0
   -2.1631  -22.2099   26.8192 H   0  0  0  0  0  0  0  0  0  0  0  0
  1  2  1  0
  2  3  1  0
  3  4  1  0
  4  5  1  0
  5  6  1  0
  6  7  2  0
  6  8  1  0
  8  9  2  0
  8 10  1  0
 10 11  1  0
 11 12  1  0
 12 13  1  0
 13 14  1  0
 14 15  1  0
 15 16  2  0
 16 17  1  0
 17 18  2  0
 18 19  1  0
 19 20  2  0
  4 21  1  0
 21 22  1  0
 22 23  1  0
 14 10  1  0
 20 15  1  0
 23 21  1  0
  1 24  1  0
  1 25  1  0
  1 26  1  0
  3 27  1  0
  3 28  1  0
  4 29  1  0
  5 30  1  0
 11 31  1  0
 11 32  1  0
 12 33  1  0
 12 34  1  0
 13 35  1  0
 13 36  1  0
 14 37  1  0
 16 38  1  0
 17 39  1  0
 18 40  1  0
 20 41  1  0
 21 42  1  0
 22 43  1  0
 22 44  1  0
 23 45  1  0
 23 46  1  0
M  END
>  <Energy>  (911) 
192.61930856426625

>  <compound_id>  (911) 
6095

>  <target_id>  (911) 
1

>  <reference_id>  (911) 
124

>  <inspiration_ids>  (911) 
[124, 49]

>  <energy_score>  (911) 
46.05535130986107

>  <distance_score>  (911) 
16.8646114165539

>  <path>  (911) 
/opt/xchem-fragalysis-2/maxwin/BulkDock/SCRATCH/511018/C6095-P124/C6095-P124.minimised.mol

>  <scratch_subdir>  (911) 
/opt/xchem-fragalysis-2/maxwin/BulkDock/SCRATCH/511018/C6095-P124

>  <fragmenstein_runtime>  (911) 
41.01547122001648

>  <fragmenstein_outcome>  (911) 
too moved

>  <fragmenstein_mode>  (911) 
expansion

>  <fragmenstein_error>  (911) 


$$$$
C6095-P49
     RDKit          3D

 46 48  0  0  0  0  0  0  0  0999 V2000
   -4.7651  -20.5563   24.8631 C   0  0  0  0  0  0  0  0  0  0  0  0
   -3.4078  -20.9007   24.6280 O   0  0  0  0  0  0  0  0  0  0  0  0
   -2.6057  -19.7782   24.2016 C   0  0  0  0  0  0  0  0  0  0  0  0
   -1.0665  -20.0493   24.3861 C   0  0  0  0  0  0  0  0  0  0  0  0
   -0.1557  -19.1667   23.5319 N   0  0  0  0  0  0  0  0  0  0  0  0
    1.3060  -19.0097   23.5283 C   0  0  0  0  0  0  0  0  0  0  0  0
    2.1431  -19.4753   24.2509 O   0  0  0  0  0  0  0  0  0  0  0  0
    1.8795  -18.1290   22.2363 C   0  0  0  0  0  0  0  0  0  0  0  0
    1.0927  -17.9086   21.3488 O   0  0  0  0  0  0  0  0  0  0  0  0
    3.3189  -17.8319   22.3317 N   0  0  0  0  0  0  0  0  0  0  0  0
    4.1208  -18.9923   21.8079 C   0  0  0  0  0  0  0  0  0  0  0  0
    4.1060  -19.0643   20.2907 C   0  0  0  0  0  0  0  0  0  0  0  0
    4.1433  -17.6129   19.9349 C   0  0  0  0  0  0  0  0  0  0  0  0
    4.3094  -17.0010   21.3241 C   0  0  0  0  0  0  0  0  0  0  0  0
    4.5225  -15.4411   21.2324 C   0  0  0  0  0  0  0  0  0  0  0  0
    5.6567  -14.8340   21.8340 C   0  0  0  0  0  0  0  0  0  0  0  0
    6.0785  -13.5327   21.4976 C   0  0  0  0  0  0  0  0  0  0  0  0
    5.3509  -12.8312   20.5576 C   0  0  0  0  0  0  0  0  0  0  0  0
    4.2574  -13.3439   19.9574 N   0  0  0  0  0  0  0  0  0  0  0  0
    3.8749  -14.6150   20.3090 C   0  0  0  0  0  0  0  0  0  0  0  0
   -0.6979  -20.1501   25.8676 C   0  0  0  0  0  0  0  0  0  0  0  0
   -1.6380  -19.9115   27.0496 C   0  0  0  0  0  0  0  0  0  0  0  0
   -1.2403  -21.3085   26.7053 C   0  0  0  0  0  0  0  0  0  0  0  0
   -4.8425  -19.8590   25.7020 H   0  0  0  0  0  0  0  0  0  0  0  0
   -5.1975  -20.1150   23.9605 H   0  0  0  0  0  0  0  0  0  0  0  0
   -5.3128  -21.4685   25.1127 H   0  0  0  0  0  0  0  0  0  0  0  0
   -2.8196  -19.6036   23.1410 H   0  0  0  0  0  0  0  0  0  0  0  0
   -2.8747  -18.8766   24.7526 H   0  0  0  0  0  0  0  0  0  0  0  0
   -0.8723  -21.0497   23.9765 H   0  0  0  0  0  0  0  0  0  0  0  0
   -0.5586  -18.5564   22.8196 H   0  0  0  0  0  0  0  0  0  0  0  0
    5.1249  -19.0284   22.2589 H   0  0  0  0  0  0  0  0  0  0  0  0
    3.6487  -19.9126   22.1779 H   0  0  0  0  0  0  0  0  0  0  0  0
    3.1928  -19.5364   19.9127 H   0  0  0  0  0  0  0  0  0  0  0  0
    4.9647  -19.6240   19.9083 H   0  0  0  0  0  0  0  0  0  0  0  0
    3.2058  -17.3084   19.4576 H   0  0  0  0  0  0  0  0  0  0  0  0
    4.9698  -17.3689   19.2595 H   0  0  0  0  0  0  0  0  0  0  0  0
    5.3278  -17.2414   21.6828 H   0  0  0  0  0  0  0  0  0  0  0  0
    6.2537  -15.3968   22.5509 H   0  0  0  0  0  0  0  0  0  0  0  0
    6.9516  -13.0933   21.9664 H   0  0  0  0  0  0  0  0  0  0  0  0
    5.6228  -11.8236   20.2614 H   0  0  0  0  0  0  0  0  0  0  0  0
    3.0083  -14.9734   19.7568 H   0  0  0  0  0  0  0  0  0  0  0  0
    0.3666  -20.0136   25.9991 H   0  0  0  0  0  0  0  0  0  0  0  0
   -2.6681  -19.6232   26.8887 H   0  0  0  0  0  0  0  0  0  0  0  0
   -1.2263  -19.5002   27.9639 H   0  0  0  0  0  0  0  0  0  0  0  0
   -1.9861  -21.9697   26.2816 H   0  0  0  0  0  0  0  0  0  0  0  0
   -0.5453  -21.8164   27.3659 H   0  0  0  0  0  0  0  0  0  0  0  0
  1  2  1  0
  2  3  1  0
  3  4  1  0
  4  5  1  0
  5  6  1  0
  6  7  2  0
  6  8  1  0
  8  9  2  0
  8 10  1  0
 10 11  1  0
 11 12  1  0
 12 13  1  0
 13 14  1  0
 14 15  1  0
 15 16  2  0
 16 17  1  0
 17 18  2  0
 18 19  1  0
 19 20  2  0
  4 21  1  0
 21 22  1  0
 22 23  1  0
 14 10  1  0
 20 15  1  0
 23 21  1  0
  1 24  1  0
  1 25  1  0
  1 26  1  0
  3 27  1  0
  3 28  1  0
  4 29  1  0
  5 30  1  0
 11 31  1  0
 11 32  1  0
 12 33  1  0
 12 34  1  0
 13 35  1  0
 13 36  1  0
 14 37  1  0
 16 38  1  0
 17 39  1  0
 18 40  1  0
 20 41  1  0
 21 42  1  0
 22 43  1  0
 22 44  1  0
 23 45  1  0
 23 46  1  0
M  END
>  <Energy>  (912) 
204.95960383239972

>  <compound_id>  (912) 
6095

>  <target_id>  (912) 
1

>  <reference_id>  (912) 
49

>  <inspiration_ids>  (912) 
[124, 49]

>  <energy_score>  (912) 
58.395646577989055

>  <distance_score>  (912) 
16.720222891657478

>  <path>  (912) 
/opt/xchem-fragalysis-2/maxwin/BulkDock/SCRATCH/511018/C6095-P49/C6095-P49.minimised.mol

>  <scratch_subdir>  (912) 
/opt/xchem-fragalysis-2/maxwin/BulkDock/SCRATCH/511018/C6095-P49

>  <fragmenstein_runtime>  (912) 
28.705276489257812

>  <fragmenstein_outcome>  (912) 
too moved

>  <fragmenstein_mode>  (912) 
expansion

>  <fragmenstein_error>  (912) 


$$$$
C6101-P124
     RDKit          3D

 48 49  0  0  0  0  0  0  0  0999 V2000
   -1.3649   -4.9717   28.0262 C   0  0  0  0  0  0  0  0  0  0  0  0
   -1.3715   -6.4479   27.6385 C   0  0  0  0  0  0  0  0  0  0  0  0
   -0.7200   -7.2946   28.8690 C   0  0  0  0  0  0  0  0  0  0  0  0
   -1.2106   -7.7636   30.2601 C   0  0  0  0  0  0  0  0  0  0  0  0
   -2.1452   -7.0969   31.0652 C   0  0  0  0  0  0  0  0  0  0  0  0
   -2.7662   -7.7704   32.1410 C   0  0  0  0  0  0  0  0  0  0  0  0
   -2.4256   -9.0867   32.4136 C   0  0  0  0  0  0  0  0  0  0  0  0
   -1.4898   -9.7490   31.7113 N   0  0  0  0  0  0  0  0  0  0  0  0
   -0.8749   -9.0771   30.6969 C   0  0  0  0  0  0  0  0  0  0  0  0
   -0.5423   -6.7456   26.3665 N   0  0  0  0  0  0  0  0  0  0  0  0
   -0.8201   -6.4332   24.8961 C   0  0  0  0  0  0  0  0  0  0  0  0
   -1.7036   -5.8173   24.3945 O   0  0  0  0  0  0  0  0  0  0  0  0
    0.3168   -7.2313   24.2569 N   0  0  0  0  0  0  0  0  0  0  0  0
    0.5880   -7.5581   22.8566 C   0  0  0  0  0  0  0  0  0  0  0  0
    2.3222   -8.1923   23.0387 C   0  0  0  0  0  0  0  0  0  0  0  0
    3.6336   -7.2096   23.9376 C   0  0  0  0  0  0  0  0  0  0  0  0
    5.6669   -8.0744   24.8600 S   0  0  0  0  0  0  0  0  0  0  0  0
    6.5871   -6.9335   24.5758 O   0  0  0  0  0  0  0  0  0  0  0  0
    5.4596   -8.4338   26.2841 O   0  0  0  0  0  0  0  0  0  0  0  0
    7.1784   -9.4595   24.5989 C   0  0  0  0  0  0  0  0  0  0  0  0
    8.4616   -8.7470   24.0388 C   0  0  0  0  0  0  0  0  0  0  0  0
    7.5837  -10.0078   25.9901 C   0  0  0  0  0  0  0  0  0  0  0  0
    1.8363   -6.1461   23.9839 C   0  0  0  0  0  0  0  0  0  0  0  0
   -1.6778   -4.8312   29.0646 H   0  0  0  0  0  0  0  0  0  0  0  0
   -2.0826   -4.4087   27.4264 H   0  0  0  0  0  0  0  0  0  0  0  0
   -0.3710   -4.5289   27.9119 H   0  0  0  0  0  0  0  0  0  0  0  0
   -2.4052   -6.7249   27.4377 H   0  0  0  0  0  0  0  0  0  0  0  0
    0.1399   -6.6680   29.1273 H   0  0  0  0  0  0  0  0  0  0  0  0
   -0.3712   -8.2097   28.3735 H   0  0  0  0  0  0  0  0  0  0  0  0
   -2.4614   -6.0844   30.8283 H   0  0  0  0  0  0  0  0  0  0  0  0
   -3.5143   -7.2650   32.7444 H   0  0  0  0  0  0  0  0  0  0  0  0
   -2.8896   -9.6418   33.2230 H   0  0  0  0  0  0  0  0  0  0  0  0
   -0.1590   -9.6863   30.1458 H   0  0  0  0  0  0  0  0  0  0  0  0
    0.2505   -7.3636   26.4312 H   0  0  0  0  0  0  0  0  0  0  0  0
   -0.0571   -8.3896   22.5581 H   0  0  0  0  0  0  0  0  0  0  0  0
    0.5678   -6.8080   22.0841 H   0  0  0  0  0  0  0  0  0  0  0  0
    2.3171   -8.6750   22.1024 H   0  0  0  0  0  0  0  0  0  0  0  0
    1.8805   -8.2417   23.9402 H   0  0  0  0  0  0  0  0  0  0  0  0
    4.4430   -7.1143   23.1945 H   0  0  0  0  0  0  0  0  0  0  0  0
    6.8353  -10.3262   24.0227 H   0  0  0  0  0  0  0  0  0  0  0  0
    8.9572   -8.1743   24.8322 H   0  0  0  0  0  0  0  0  0  0  0  0
    9.1741   -9.5034   23.6927 H   0  0  0  0  0  0  0  0  0  0  0  0
    8.2901   -8.0405   23.2273 H   0  0  0  0  0  0  0  0  0  0  0  0
    8.4417  -10.6825   25.8920 H   0  0  0  0  0  0  0  0  0  0  0  0
    7.8689   -9.2014   26.6744 H   0  0  0  0  0  0  0  0  0  0  0  0
    6.7818  -10.5828   26.4598 H   0  0  0  0  0  0  0  0  0  0  0  0
    2.1758   -5.5647   24.8774 H   0  0  0  0  0  0  0  0  0  0  0  0
    1.4078   -5.4015   23.2438 H   0  0  0  0  0  0  0  0  0  0  0  0
  1  2  1  0
  2  3  1  0
  3  4  1  0
  4  5  2  0
  5  6  1  0
  6  7  2  0
  7  8  1  0
  8  9  2  0
  2 10  1  0
 10 11  1  0
 11 12  2  0
 11 13  1  0
 13 14  1  0
 14 15  1  0
 15 16  1  0
 16 17  1  0
 17 18  2  0
 17 19  2  0
 17 20  1  0
 20 21  1  0
 20 22  1  0
 16 23  1  0
  9  4  1  0
 23 13  1  0
  1 24  1  0
  1 25  1  0
  1 26  1  0
  2 27  1  0
  3 28  1  0
  3 29  1  0
  5 30  1  0
  6 31  1  0
  7 32  1  0
  9 33  1  0
 10 34  1  0
 14 35  1  0
 14 36  1  0
 15 37  1  0
 15 38  1  0
 16 39  1  0
 20 40  1  0
 21 41  1  0
 21 42  1  0
 21 43  1  0
 22 44  1  0
 22 45  1  0
 22 46  1  0
 23 47  1  0
 23 48  1  0
M  END
>  <Energy>  (913) 
555.91395022151414

>  <compound_id>  (913) 
6101

>  <target_id>  (913) 
1

>  <reference_id>  (913) 
124

>  <inspiration_ids>  (913) 
[124, 49]

>  <energy_score>  (913) 
567.8720268282739

>  <distance_score>  (913) 
16.40932824527764

>  <path>  (913) 
/opt/xchem-fragalysis-2/maxwin/BulkDock/SCRATCH/511018/C6101-P124/C6101-P124.minimised.mol

>  <scratch_subdir>  (913) 
/opt/xchem-fragalysis-2/maxwin/BulkDock/SCRATCH/511018/C6101-P124

>  <fragmenstein_runtime>  (913) 
35.11444449424744

>  <fragmenstein_outcome>  (913) 
too moved

>  <fragmenstein_mode>  (913) 
expansion

>  <fragmenstein_error>  (913) 


$$$$
C6101-P49
     RDKit          3D

 48 49  0  0  0  0  0  0  0  0999 V2000
    1.7515  -16.1844   28.3475 C   0  0  0  0  0  0  0  0  0  0  0  0
    1.4816  -16.1975   26.8357 C   0  0  0  0  0  0  0  0  0  0  0  0
    0.0030  -16.8603   26.5690 C   0  0  0  0  0  0  0  0  0  0  0  0
   -1.0491  -17.2270   27.6375 C   0  0  0  0  0  0  0  0  0  0  0  0
   -1.6408  -16.2898   28.4899 C   0  0  0  0  0  0  0  0  0  0  0  0
   -2.6873  -16.6611   29.3495 C   0  0  0  0  0  0  0  0  0  0  0  0
   -3.1372  -17.9691   29.3307 C   0  0  0  0  0  0  0  0  0  0  0  0
   -2.6212  -18.9110   28.5152 N   0  0  0  0  0  0  0  0  0  0  0  0
   -1.6050  -18.5164   27.6961 C   0  0  0  0  0  0  0  0  0  0  0  0
    2.0411  -14.8552   26.2072 N   0  0  0  0  0  0  0  0  0  0  0  0
    3.2463  -14.0671   26.5011 C   0  0  0  0  0  0  0  0  0  0  0  0
    4.0511  -14.3825   27.2328 O   0  0  0  0  0  0  0  0  0  0  0  0
    3.2921  -12.4095   25.7001 N   0  0  0  0  0  0  0  0  0  0  0  0
    4.3482  -11.0739   25.9610 C   0  0  0  0  0  0  0  0  0  0  0  0
    5.3739  -10.1957   25.2028 C   0  0  0  0  0  0  0  0  0  0  0  0
    5.4045  -10.7737   23.8748 C   0  0  0  0  0  0  0  0  0  0  0  0
    7.2224  -10.3292   23.2310 S   0  0  0  0  0  0  0  0  0  0  0  0
    7.2943  -10.6353   21.8102 O   0  0  0  0  0  0  0  0  0  0  0  0
    8.1573  -10.9626   24.1390 O   0  0  0  0  0  0  0  0  0  0  0  0
    7.6413   -8.5266   23.1995 C   0  0  0  0  0  0  0  0  0  0  0  0
    7.3188   -7.8531   21.8505 C   0  0  0  0  0  0  0  0  0  0  0  0
    7.1037   -7.7087   24.3560 C   0  0  0  0  0  0  0  0  0  0  0  0
    4.1783  -12.2505   24.0844 C   0  0  0  0  0  0  0  0  0  0  0  0
    1.4674  -17.1338   28.8125 H   0  0  0  0  0  0  0  0  0  0  0  0
    2.8144  -16.0453   28.5639 H   0  0  0  0  0  0  0  0  0  0  0  0
    1.2039  -15.3735   28.8373 H   0  0  0  0  0  0  0  0  0  0  0  0
    2.1872  -16.9251   26.4103 H   0  0  0  0  0  0  0  0  0  0  0  0
    0.2466  -17.8090   26.0661 H   0  0  0  0  0  0  0  0  0  0  0  0
   -0.5455  -16.3155   25.8066 H   0  0  0  0  0  0  0  0  0  0  0  0
   -1.3107  -15.2536   28.4798 H   0  0  0  0  0  0  0  0  0  0  0  0
   -3.1450  -15.9349   30.0131 H   0  0  0  0  0  0  0  0  0  0  0  0
   -3.9377  -18.2888   29.9890 H   0  0  0  0  0  0  0  0  0  0  0  0
   -1.2416  -19.3067   27.0423 H   0  0  0  0  0  0  0  0  0  0  0  0
    1.4861  -14.3424   25.6301 H   0  0  0  0  0  0  0  0  0  0  0  0
    3.7470  -10.2597   26.3232 H   0  0  0  0  0  0  0  0  0  0  0  0
    4.5616  -11.1910   27.0007 H   0  0  0  0  0  0  0  0  0  0  0  0
    6.3701  -10.1289   25.6289 H   0  0  0  0  0  0  0  0  0  0  0  0
    5.0730   -9.1436   25.2180 H   0  0  0  0  0  0  0  0  0  0  0  0
    4.9847  -10.1915   23.0751 H   0  0  0  0  0  0  0  0  0  0  0  0
    8.7367   -8.5310   23.2890 H   0  0  0  0  0  0  0  0  0  0  0  0
    7.5852   -6.7912   21.8732 H   0  0  0  0  0  0  0  0  0  0  0  0
    6.2519   -7.9364   21.6198 H   0  0  0  0  0  0  0  0  0  0  0  0
    7.8800   -8.3148   21.0320 H   0  0  0  0  0  0  0  0  0  0  0  0
    7.5655   -6.7145   24.3612 H   0  0  0  0  0  0  0  0  0  0  0  0
    6.0263   -7.5502   24.2708 H   0  0  0  0  0  0  0  0  0  0  0  0
    7.3339   -8.1690   25.3197 H   0  0  0  0  0  0  0  0  0  0  0  0
    3.3697  -12.0990   23.3703 H   0  0  0  0  0  0  0  0  0  0  0  0
    4.5543  -13.1828   23.7101 H   0  0  0  0  0  0  0  0  0  0  0  0
  1  2  1  0
  2  3  1  0
  3  4  1  0
  4  5  2  0
  5  6  1  0
  6  7  2  0
  7  8  1  0
  8  9  2  0
  2 10  1  0
 10 11  1  0
 11 12  2  0
 11 13  1  0
 13 14  1  0
 14 15  1  0
 15 16  1  0
 16 17  1  0
 17 18  2  0
 17 19  2  0
 17 20  1  0
 20 21  1  0
 20 22  1  0
 16 23  1  0
  9  4  1  0
 23 13  1  0
  1 24  1  0
  1 25  1  0
  1 26  1  0
  2 27  1  0
  3 28  1  0
  3 29  1  0
  5 30  1  0
  6 31  1  0
  7 32  1  0
  9 33  1  0
 10 34  1  0
 14 35  1  0
 14 36  1  0
 15 37  1  0
 15 38  1  0
 16 39  1  0
 20 40  1  0
 21 41  1  0
 21 42  1  0
 21 43  1  0
 22 44  1  0
 22 45  1  0
 22 46  1  0
 23 47  1  0
 23 48  1  0
M  END
>  <Energy>  (914) 
300.0543023795949

>  <compound_id>  (914) 
6101

>  <target_id>  (914) 
1

>  <reference_id>  (914) 
49

>  <inspiration_ids>  (914) 
[124, 49]

>  <energy_score>  (914) 
312.0123789863533

>  <distance_score>  (914) 
14.680284656427697

>  <path>  (914) 
/opt/xchem-fragalysis-2/maxwin/BulkDock/SCRATCH/511018/C6101-P49/C6101-P49.minimised.mol

>  <scratch_subdir>  (914) 
/opt/xchem-fragalysis-2/maxwin/BulkDock/SCRATCH/511018/C6101-P49

>  <fragmenstein_runtime>  (914) 
20.827270030975342

>  <fragmenstein_outcome>  (914) 
too moved

>  <fragmenstein_mode>  (914) 
expansion

>  <fragmenstein_error>  (914) 


$$$$
C6104-P124
     RDKit          3D

 45 46  0  0  0  0  0  0  0  0999 V2000
    5.5965   -5.3882   20.1573 C   0  0  0  0  0  0  0  0  0  0  0  0
    4.4896   -4.3536   20.3668 C   0  0  0  0  0  0  0  0  0  0  0  0
    4.3444   -3.9340   21.8257 C   0  0  0  0  0  0  0  0  0  0  0  0
    2.9374   -4.8325   19.5344 S   0  0  0  0  0  0  0  0  0  0  0  0
    3.3275   -5.1453   18.1669 O   0  0  0  0  0  0  0  0  0  0  0  0
    1.9710   -3.7789   19.7802 O   0  0  0  0  0  0  0  0  0  0  0  0
    2.2840   -6.3384   20.2506 C   0  0  0  0  0  0  0  0  0  0  0  0
    2.5990   -6.4714   21.6720 C   0  0  0  0  0  0  0  0  0  0  0  0
    1.7037   -7.6447   21.8836 C   0  0  0  0  0  0  0  0  0  0  0  0
    0.2855   -7.7354   21.4855 N   0  0  0  0  0  0  0  0  0  0  0  0
   -0.9277   -7.3715   22.2069 C   0  0  0  0  0  0  0  0  0  0  0  0
   -1.0681   -6.8220   23.2714 O   0  0  0  0  0  0  0  0  0  0  0  0
   -2.2576   -7.8809   21.5227 C   0  0  0  0  0  0  0  0  0  0  0  0
   -2.6874   -9.4329   21.6284 C   0  0  0  0  0  0  0  0  0  0  0  0
   -1.5380  -10.3086   21.3417 N   0  0  0  0  0  0  0  0  0  0  0  0
   -3.9286  -10.1828   22.3979 C   0  0  0  0  0  0  0  0  0  0  0  0
   -4.2232  -11.2328   23.8641 C   0  0  0  0  0  0  0  0  0  0  0  0
   -5.7261  -12.2041   23.8690 C   0  0  0  0  0  0  0  0  0  0  0  0
   -6.6501  -12.0928   22.7138 C   0  0  0  0  0  0  0  0  0  0  0  0
   -6.4351  -11.2104   21.5861 N   0  0  0  0  0  0  0  0  0  0  0  0
   -5.1796  -10.3484   21.4218 C   0  0  0  0  0  0  0  0  0  0  0  0
    0.7405   -6.5281   20.4866 C   0  0  0  0  0  0  0  0  0  0  0  0
    5.3456   -6.3425   20.6275 H   0  0  0  0  0  0  0  0  0  0  0  0
    5.7604   -5.6026   19.0988 H   0  0  0  0  0  0  0  0  0  0  0  0
    6.5387   -5.0523   20.5995 H   0  0  0  0  0  0  0  0  0  0  0  0
    4.7502   -3.4225   19.8595 H   0  0  0  0  0  0  0  0  0  0  0  0
    5.1790   -3.2796   22.1044 H   0  0  0  0  0  0  0  0  0  0  0  0
    4.3844   -4.7772   22.5177 H   0  0  0  0  0  0  0  0  0  0  0  0
    3.4186   -3.3786   22.0017 H   0  0  0  0  0  0  0  0  0  0  0  0
    2.6871   -7.1692   19.6569 H   0  0  0  0  0  0  0  0  0  0  0  0
    3.6329   -6.7318   21.9001 H   0  0  0  0  0  0  0  0  0  0  0  0
    2.2815   -5.6190   22.2826 H   0  0  0  0  0  0  0  0  0  0  0  0
    1.6719   -7.7527   22.9658 H   0  0  0  0  0  0  0  0  0  0  0  0
    2.1808   -8.5429   21.4651 H   0  0  0  0  0  0  0  0  0  0  0  0
   -3.0878   -7.2544   21.8673 H   0  0  0  0  0  0  0  0  0  0  0  0
   -2.1342   -7.6394   20.4563 H   0  0  0  0  0  0  0  0  0  0  0  0
   -3.1492   -9.4758   20.6307 H   0  0  0  0  0  0  0  0  0  0  0  0
   -0.7597  -10.0724   21.9692 H   0  0  0  0  0  0  0  0  0  0  0  0
   -1.1549  -10.0647   20.4277 H   0  0  0  0  0  0  0  0  0  0  0  0
   -3.5010  -11.7602   24.4948 H   0  0  0  0  0  0  0  0  0  0  0  0
   -6.2072  -12.5567   24.7672 H   0  0  0  0  0  0  0  0  0  0  0  0
   -7.6142  -12.5906   22.7127 H   0  0  0  0  0  0  0  0  0  0  0  0
   -5.1937   -9.8294   20.4656 H   0  0  0  0  0  0  0  0  0  0  0  0
    0.2794   -5.6077   20.8757 H   0  0  0  0  0  0  0  0  0  0  0  0
    0.2392   -6.7465   19.5356 H   0  0  0  0  0  0  0  0  0  0  0  0
  1  2  1  0
  2  3  1  0
  2  4  1  0
  4  5  2  0
  4  6  2  0
  4  7  1  0
  7  8  1  0
  8  9  1  0
  9 10  1  0
 10 11  1  0
 11 12  2  0
 11 13  1  0
 13 14  1  0
 14 15  1  0
 14 16  1  0
 16 17  2  0
 17 18  1  0
 18 19  2  0
 19 20  1  0
 20 21  2  0
 10 22  1  0
 22  7  1  0
 21 16  1  0
  1 23  1  0
  1 24  1  0
  1 25  1  0
  2 26  1  0
  3 27  1  0
  3 28  1  0
  3 29  1  0
  7 30  1  0
  8 31  1  0
  8 32  1  0
  9 33  1  0
  9 34  1  0
 13 35  1  0
 13 36  1  0
 14 37  1  0
 15 38  1  0
 15 39  1  0
 17 40  1  0
 18 41  1  0
 19 42  1  0
 21 43  1  0
 22 44  1  0
 22 45  1  0
M  END
>  <Energy>  (915) 
274.63523063878279

>  <compound_id>  (915) 
6104

>  <target_id>  (915) 
1

>  <reference_id>  (915) 
124

>  <inspiration_ids>  (915) 
[124, 49]

>  <energy_score>  (915) 
226.2777620442751

>  <distance_score>  (915) 
15.332748545662861

>  <path>  (915) 
/opt/xchem-fragalysis-2/maxwin/BulkDock/SCRATCH/511018/C6104-P124/C6104-P124.minimised.mol

>  <scratch_subdir>  (915) 
/opt/xchem-fragalysis-2/maxwin/BulkDock/SCRATCH/511018/C6104-P124

>  <fragmenstein_runtime>  (915) 
27.07572913169861

>  <fragmenstein_outcome>  (915) 
too moved

>  <fragmenstein_mode>  (915) 
expansion

>  <fragmenstein_error>  (915) 


$$$$
C6104-P49
     RDKit          3D

 45 46  0  0  0  0  0  0  0  0999 V2000
    6.4556   -6.0496   21.2211 C   0  0  0  0  0  0  0  0  0  0  0  0
    5.8441   -5.9700   22.6252 C   0  0  0  0  0  0  0  0  0  0  0  0
    6.1029   -4.5972   23.2363 C   0  0  0  0  0  0  0  0  0  0  0  0
    4.0553   -6.3314   22.5481 S   0  0  0  0  0  0  0  0  0  0  0  0
    3.4920   -5.2224   21.7962 O   0  0  0  0  0  0  0  0  0  0  0  0
    3.9193   -7.6841   22.0452 O   0  0  0  0  0  0  0  0  0  0  0  0
    3.3570   -6.3119   24.2470 C   0  0  0  0  0  0  0  0  0  0  0  0
    4.2725   -6.9077   25.2560 C   0  0  0  0  0  0  0  0  0  0  0  0
    3.2097   -7.3377   26.2685 C   0  0  0  0  0  0  0  0  0  0  0  0
    2.3401   -8.4335   25.6954 N   0  0  0  0  0  0  0  0  0  0  0  0
    0.9034   -9.1534   26.2537 C   0  0  0  0  0  0  0  0  0  0  0  0
    0.3486   -8.7292   27.2310 O   0  0  0  0  0  0  0  0  0  0  0  0
    0.0604  -10.8728   25.4959 C   0  0  0  0  0  0  0  0  0  0  0  0
   -1.2067  -12.5586   26.4357 C   0  0  0  0  0  0  0  0  0  0  0  0
   -2.2574  -13.3796   25.7792 N   0  0  0  0  0  0  0  0  0  0  0  0
   -2.0853  -13.0123   28.2430 C   0  0  0  0  0  0  0  0  0  0  0  0
   -1.8096  -13.3054   29.8866 C   0  0  0  0  0  0  0  0  0  0  0  0
   -3.0840  -13.8486   31.1254 C   0  0  0  0  0  0  0  0  0  0  0  0
   -4.7837  -14.4062   31.1543 C   0  0  0  0  0  0  0  0  0  0  0  0
   -5.1475  -14.4659   29.3737 N   0  0  0  0  0  0  0  0  0  0  0  0
   -3.6377  -13.7911   28.5854 C   0  0  0  0  0  0  0  0  0  0  0  0
    2.0258   -7.1800   24.5674 C   0  0  0  0  0  0  0  0  0  0  0  0
    7.5421   -5.9466   21.2773 H   0  0  0  0  0  0  0  0  0  0  0  0
    6.0481   -5.2653   20.5769 H   0  0  0  0  0  0  0  0  0  0  0  0
    6.2378   -7.0140   20.7509 H   0  0  0  0  0  0  0  0  0  0  0  0
    6.2875   -6.7521   23.2498 H   0  0  0  0  0  0  0  0  0  0  0  0
    5.6687   -4.5108   24.2354 H   0  0  0  0  0  0  0  0  0  0  0  0
    7.1787   -4.4107   23.3222 H   0  0  0  0  0  0  0  0  0  0  0  0
    5.6724   -3.7982   22.6230 H   0  0  0  0  0  0  0  0  0  0  0  0
    3.1421   -5.2584   24.4642 H   0  0  0  0  0  0  0  0  0  0  0  0
    4.9691   -6.1814   25.6832 H   0  0  0  0  0  0  0  0  0  0  0  0
    4.8427   -7.7644   24.8845 H   0  0  0  0  0  0  0  0  0  0  0  0
    2.8157   -6.4391   26.6978 H   0  0  0  0  0  0  0  0  0  0  0  0
    3.7859   -7.7937   27.0600 H   0  0  0  0  0  0  0  0  0  0  0  0
   -0.3799  -10.2549   24.6977 H   0  0  0  0  0  0  0  0  0  0  0  0
    0.8266  -11.3971   24.8708 H   0  0  0  0  0  0  0  0  0  0  0  0
   -0.7599  -13.4559   26.7092 H   0  0  0  0  0  0  0  0  0  0  0  0
   -2.1244  -14.3833   26.0042 H   0  0  0  0  0  0  0  0  0  0  0  0
   -2.9461  -13.3838   26.4862 H   0  0  0  0  0  0  0  0  0  0  0  0
   -0.8984  -12.8463   30.2607 H   0  0  0  0  0  0  0  0  0  0  0  0
   -2.9650  -13.2456   32.0514 H   0  0  0  0  0  0  0  0  0  0  0  0
   -5.6264  -14.5173   31.7992 H   0  0  0  0  0  0  0  0  0  0  0  0
   -3.9366  -12.7278   28.6944 H   0  0  0  0  0  0  0  0  0  0  0  0
    1.7374   -7.5378   23.5974 H   0  0  0  0  0  0  0  0  0  0  0  0
    1.2025   -6.5648   24.9298 H   0  0  0  0  0  0  0  0  0  0  0  0
  1  2  1  0
  2  3  1  0
  2  4  1  0
  4  5  2  0
  4  6  2  0
  4  7  1  0
  7  8  1  0
  8  9  1  0
  9 10  1  0
 10 11  1  0
 11 12  2  0
 11 13  1  0
 13 14  1  0
 14 15  1  0
 14 16  1  0
 16 17  2  0
 17 18  1  0
 18 19  2  0
 19 20  1  0
 20 21  2  0
 10 22  1  0
 22  7  1  0
 21 16  1  0
  1 23  1  0
  1 24  1  0
  1 25  1  0
  2 26  1  0
  3 27  1  0
  3 28  1  0
  3 29  1  0
  7 30  1  0
  8 31  1  0
  8 32  1  0
  9 33  1  0
  9 34  1  0
 13 35  1  0
 13 36  1  0
 14 37  1  0
 15 38  1  0
 15 39  1  0
 17 40  1  0
 18 41  1  0
 19 42  1  0
 21 43  1  0
 22 44  1  0
 22 45  1  0
M  END
>  <Energy>  (916) 
971.41369862767453

>  <compound_id>  (916) 
6104

>  <target_id>  (916) 
1

>  <reference_id>  (916) 
49

>  <inspiration_ids>  (916) 
[124, 49]

>  <energy_score>  (916) 
923.0562300331734

>  <distance_score>  (916) 
14.450843467200285

>  <path>  (916) 
/opt/xchem-fragalysis-2/maxwin/BulkDock/SCRATCH/511018/C6104-P49/C6104-P49.minimised.mol

>  <scratch_subdir>  (916) 
/opt/xchem-fragalysis-2/maxwin/BulkDock/SCRATCH/511018/C6104-P49

>  <fragmenstein_runtime>  (916) 
23.157560348510742

>  <fragmenstein_outcome>  (916) 
too moved

>  <fragmenstein_mode>  (916) 
expansion

>  <fragmenstein_error>  (916) 


$$$$
C6105-P124
     RDKit          3D

 45 46  0  0  0  0  0  0  0  0999 V2000
    9.2670   -2.7686   14.9365 C   0  0  0  0  0  0  0  0  0  0  0  0
    7.9855   -1.9484   15.0984 C   0  0  0  0  0  0  0  0  0  0  0  0
    8.1966   -0.6501   14.3776 C   0  0  0  0  0  0  0  0  0  0  0  0
    6.0953   -2.3451   15.2364 S   0  0  0  0  0  0  0  0  0  0  0  0
    5.6864   -1.2933   16.1711 O   0  0  0  0  0  0  0  0  0  0  0  0
    5.5922   -2.2413   13.8733 O   0  0  0  0  0  0  0  0  0  0  0  0
    5.0868   -3.8328   15.9210 C   0  0  0  0  0  0  0  0  0  0  0  0
    5.5605   -5.1255   16.5916 C   0  0  0  0  0  0  0  0  0  0  0  0
    4.2575   -5.7993   17.0785 C   0  0  0  0  0  0  0  0  0  0  0  0
    3.2291   -4.7666   17.1829 N   0  0  0  0  0  0  0  0  0  0  0  0
    2.1793   -4.9399   18.2985 C   0  0  0  0  0  0  0  0  0  0  0  0
    1.3500   -6.3904   18.2693 C   0  0  0  0  0  0  0  0  0  0  0  0
    1.6608   -7.1166   17.3581 O   0  0  0  0  0  0  0  0  0  0  0  0
    0.3998   -6.6133   19.4123 N   0  0  0  0  0  0  0  0  0  0  0  0
   -0.3770   -7.8467   19.8245 C   0  0  0  0  0  0  0  0  0  0  0  0
   -1.5764   -8.1055   20.7890 C   0  0  0  0  0  0  0  0  0  0  0  0
   -2.5973   -9.0194   20.4037 C   0  0  0  0  0  0  0  0  0  0  0  0
   -3.6292   -9.4402   21.2694 C   0  0  0  0  0  0  0  0  0  0  0  0
   -3.6275   -8.9581   22.5571 C   0  0  0  0  0  0  0  0  0  0  0  0
   -2.6416   -8.1598   23.0144 N   0  0  0  0  0  0  0  0  0  0  0  0
   -1.6515   -7.7608   22.1323 C   0  0  0  0  0  0  0  0  0  0  0  0
    3.9157   -3.4584   16.9188 C   0  0  0  0  0  0  0  0  0  0  0  0
    9.0967   -3.8207   15.0572 H   0  0  0  0  0  0  0  0  0  0  0  0
    9.9761   -2.6656   14.1304 H   0  0  0  0  0  0  0  0  0  0  0  0
    9.9975   -2.4184   15.6889 H   0  0  0  0  0  0  0  0  0  0  0  0
    8.1147   -1.5884   16.1009 H   0  0  0  0  0  0  0  0  0  0  0  0
    7.6629   -0.6390   13.4292 H   0  0  0  0  0  0  0  0  0  0  0  0
    7.8635    0.1293   15.0360 H   0  0  0  0  0  0  0  0  0  0  0  0
    9.2469   -0.3683   14.2320 H   0  0  0  0  0  0  0  0  0  0  0  0
    4.5440   -4.1276   15.0103 H   0  0  0  0  0  0  0  0  0  0  0  0
    6.1363   -5.0121   17.4985 H   0  0  0  0  0  0  0  0  0  0  0  0
    6.1070   -5.8392   15.9862 H   0  0  0  0  0  0  0  0  0  0  0  0
    4.4455   -6.2999   18.0259 H   0  0  0  0  0  0  0  0  0  0  0  0
    3.9458   -6.5531   16.3477 H   0  0  0  0  0  0  0  0  0  0  0  0
    1.4246   -4.1559   18.1782 H   0  0  0  0  0  0  0  0  0  0  0  0
    2.6621   -4.8393   19.2731 H   0  0  0  0  0  0  0  0  0  0  0  0
    0.4429   -5.8203   20.0400 H   0  0  0  0  0  0  0  0  0  0  0  0
    0.4008   -8.4961   20.2276 H   0  0  0  0  0  0  0  0  0  0  0  0
   -0.6659   -8.2640   18.8525 H   0  0  0  0  0  0  0  0  0  0  0  0
   -2.5837   -9.4222   19.3895 H   0  0  0  0  0  0  0  0  0  0  0  0
   -4.4068  -10.1092   20.9184 H   0  0  0  0  0  0  0  0  0  0  0  0
   -4.4054   -9.2107   23.2698 H   0  0  0  0  0  0  0  0  0  0  0  0
   -0.8777   -7.1475   22.5908 H   0  0  0  0  0  0  0  0  0  0  0  0
    3.2204   -2.7473   16.4628 H   0  0  0  0  0  0  0  0  0  0  0  0
    4.3052   -3.0377   17.8516 H   0  0  0  0  0  0  0  0  0  0  0  0
  1  2  1  0
  2  3  1  0
  2  4  1  0
  4  5  2  0
  4  6  2  0
  4  7  1  0
  7  8  1  0
  8  9  1  0
  9 10  1  0
 10 11  1  0
 11 12  1  0
 12 13  2  0
 12 14  1  0
 14 15  1  0
 15 16  1  0
 16 17  2  0
 17 18  1  0
 18 19  2  0
 19 20  1  0
 20 21  2  0
 10 22  1  0
 22  7  1  0
 21 16  1  0
  1 23  1  0
  1 24  1  0
  1 25  1  0
  2 26  1  0
  3 27  1  0
  3 28  1  0
  3 29  1  0
  7 30  1  0
  8 31  1  0
  8 32  1  0
  9 33  1  0
  9 34  1  0
 11 35  1  0
 11 36  1  0
 14 37  1  0
 15 38  1  0
 15 39  1  0
 17 40  1  0
 18 41  1  0
 19 42  1  0
 21 43  1  0
 22 44  1  0
 22 45  1  0
M  END
>  <Energy>  (917) 
177.14457046249763

>  <compound_id>  (917) 
6105

>  <target_id>  (917) 
1

>  <reference_id>  (917) 
124

>  <inspiration_ids>  (917) 
[124, 49]

>  <energy_score>  (917) 
100.2406126391644

>  <distance_score>  (917) 
15.07450188475792

>  <path>  (917) 
/opt/xchem-fragalysis-2/maxwin/BulkDock/SCRATCH/511018/C6105-P124/C6105-P124.minimised.mol

>  <scratch_subdir>  (917) 
/opt/xchem-fragalysis-2/maxwin/BulkDock/SCRATCH/511018/C6105-P124

>  <fragmenstein_runtime>  (917) 
27.730571508407593

>  <fragmenstein_outcome>  (917) 
too moved

>  <fragmenstein_mode>  (917) 
expansion

>  <fragmenstein_error>  (917) 


$$$$
C6105-P49
     RDKit          3D

 45 46  0  0  0  0  0  0  0  0999 V2000
   13.1640   -7.4370   18.5542 C   0  0  0  0  0  0  0  0  0  0  0  0
   12.9140   -8.7601   19.2735 C   0  0  0  0  0  0  0  0  0  0  0  0
   14.0763   -9.7193   19.0253 C   0  0  0  0  0  0  0  0  0  0  0  0
   11.3237   -9.5240   18.8264 S   0  0  0  0  0  0  0  0  0  0  0  0
   10.3384   -8.4554   18.8444 O   0  0  0  0  0  0  0  0  0  0  0  0
   11.5222  -10.3027   17.6202 O   0  0  0  0  0  0  0  0  0  0  0  0
   10.9968  -10.6727   20.1921 C   0  0  0  0  0  0  0  0  0  0  0  0
   10.2788  -10.0198   21.3534 C   0  0  0  0  0  0  0  0  0  0  0  0
    9.8177  -11.2287   22.1571 C   0  0  0  0  0  0  0  0  0  0  0  0
    9.3228  -12.2060   21.1638 N   0  0  0  0  0  0  0  0  0  0  0  0
    9.2196  -13.6127   21.7928 C   0  0  0  0  0  0  0  0  0  0  0  0
    8.2884  -14.7719   21.1053 C   0  0  0  0  0  0  0  0  0  0  0  0
    8.3164  -14.8350   19.9014 O   0  0  0  0  0  0  0  0  0  0  0  0
    7.6042  -15.6589   22.1163 N   0  0  0  0  0  0  0  0  0  0  0  0
    6.8317  -16.9502   21.9375 C   0  0  0  0  0  0  0  0  0  0  0  0
    5.7107  -17.4963   22.8899 C   0  0  0  0  0  0  0  0  0  0  0  0
    5.9623  -18.2139   24.0775 C   0  0  0  0  0  0  0  0  0  0  0  0
    4.9172  -18.7944   24.8407 C   0  0  0  0  0  0  0  0  0  0  0  0
    3.6145  -18.6710   24.3982 C   0  0  0  0  0  0  0  0  0  0  0  0
    3.3152  -18.0317   23.2558 N   0  0  0  0  0  0  0  0  0  0  0  0
    4.3536  -17.4756   22.5401 C   0  0  0  0  0  0  0  0  0  0  0  0
   10.1372  -11.9482   19.9257 C   0  0  0  0  0  0  0  0  0  0  0  0
   12.3687   -6.7180   18.7670 H   0  0  0  0  0  0  0  0  0  0  0  0
   14.1035   -6.9884   18.8957 H   0  0  0  0  0  0  0  0  0  0  0  0
   13.2478   -7.5915   17.4766 H   0  0  0  0  0  0  0  0  0  0  0  0
   12.8408   -8.5497   20.3471 H   0  0  0  0  0  0  0  0  0  0  0  0
   15.0181   -9.2830   19.3749 H   0  0  0  0  0  0  0  0  0  0  0  0
   13.9377  -10.6691   19.5488 H   0  0  0  0  0  0  0  0  0  0  0  0
   14.1866   -9.9436   17.9588 H   0  0  0  0  0  0  0  0  0  0  0  0
   11.9787  -11.0225   20.5321 H   0  0  0  0  0  0  0  0  0  0  0  0
   10.9322   -9.3616   21.9335 H   0  0  0  0  0  0  0  0  0  0  0  0
    9.4103   -9.4388   21.0223 H   0  0  0  0  0  0  0  0  0  0  0  0
    9.0313  -10.9563   22.8681 H   0  0  0  0  0  0  0  0  0  0  0  0
   10.6672  -11.6411   22.7167 H   0  0  0  0  0  0  0  0  0  0  0  0
    8.8375  -13.4833   22.8123 H   0  0  0  0  0  0  0  0  0  0  0  0
   10.2296  -14.0320   21.8739 H   0  0  0  0  0  0  0  0  0  0  0  0
    7.7235  -15.2638   23.0408 H   0  0  0  0  0  0  0  0  0  0  0  0
    6.4451  -16.9448   20.9130 H   0  0  0  0  0  0  0  0  0  0  0  0
    7.6131  -17.7216   21.9265 H   0  0  0  0  0  0  0  0  0  0  0  0
    6.9885  -18.3356   24.4205 H   0  0  0  0  0  0  0  0  0  0  0  0
    5.1403  -19.3330   25.7553 H   0  0  0  0  0  0  0  0  0  0  0  0
    2.7777  -19.0942   24.9423 H   0  0  0  0  0  0  0  0  0  0  0  0
    4.0397  -17.0083   21.6083 H   0  0  0  0  0  0  0  0  0  0  0  0
    9.4537  -11.7947   19.0846 H   0  0  0  0  0  0  0  0  0  0  0  0
   10.7868  -12.7993   19.6952 H   0  0  0  0  0  0  0  0  0  0  0  0
  1  2  1  0
  2  3  1  0
  2  4  1  0
  4  5  2  0
  4  6  2  0
  4  7  1  0
  7  8  1  0
  8  9  1  0
  9 10  1  0
 10 11  1  0
 11 12  1  0
 12 13  2  0
 12 14  1  0
 14 15  1  0
 15 16  1  0
 16 17  2  0
 17 18  1  0
 18 19  2  0
 19 20  1  0
 20 21  2  0
 10 22  1  0
 22  7  1  0
 21 16  1  0
  1 23  1  0
  1 24  1  0
  1 25  1  0
  2 26  1  0
  3 27  1  0
  3 28  1  0
  3 29  1  0
  7 30  1  0
  8 31  1  0
  8 32  1  0
  9 33  1  0
  9 34  1  0
 11 35  1  0
 11 36  1  0
 14 37  1  0
 15 38  1  0
 15 39  1  0
 17 40  1  0
 18 41  1  0
 19 42  1  0
 21 43  1  0
 22 44  1  0
 22 45  1  0
M  END
>  <Energy>  (918) 
81.060339895043171

>  <compound_id>  (918) 
6105

>  <target_id>  (918) 
1

>  <reference_id>  (918) 
49

>  <inspiration_ids>  (918) 
[124, 49]

>  <energy_score>  (918) 
4.156382071709203

>  <distance_score>  (918) 
14.93072682169359

>  <path>  (918) 
/opt/xchem-fragalysis-2/maxwin/BulkDock/SCRATCH/511018/C6105-P49/C6105-P49.minimised.mol

>  <scratch_subdir>  (918) 
/opt/xchem-fragalysis-2/maxwin/BulkDock/SCRATCH/511018/C6105-P49

>  <fragmenstein_runtime>  (918) 
18.887075424194336

>  <fragmenstein_outcome>  (918) 
too moved

>  <fragmenstein_mode>  (918) 
expansion

>  <fragmenstein_error>  (918) 


$$$$
C6106-P124
     RDKit          3D

 45 46  0  0  0  0  0  0  0  0999 V2000
    8.2320  -15.6118   25.4274 C   0  0  0  0  0  0  0  0  0  0  0  0
    6.8724  -14.9054   25.4306 C   0  0  0  0  0  0  0  0  0  0  0  0
    6.8921  -13.8495   24.3822 N   0  0  0  0  0  0  0  0  0  0  0  0
    6.8729  -12.3644   24.4981 C   0  0  0  0  0  0  0  0  0  0  0  0
    6.8266  -11.6783   25.4519 O   0  0  0  0  0  0  0  0  0  0  0  0
    6.8247  -11.9857   23.0468 N   0  0  0  0  0  0  0  0  0  0  0  0
    6.5948  -10.6609   22.3954 C   0  0  0  0  0  0  0  0  0  0  0  0
    7.5064   -9.5695   22.8986 C   0  0  0  0  0  0  0  0  0  0  0  0
    8.8017  -10.2856   22.7762 C   0  0  0  0  0  0  0  0  0  0  0  0
    9.8467   -9.5732   21.4877 S   0  0  0  0  0  0  0  0  0  0  0  0
    9.0336   -9.3576   20.3051 O   0  0  0  0  0  0  0  0  0  0  0  0
   11.0100  -10.4367   21.4018 O   0  0  0  0  0  0  0  0  0  0  0  0
   10.4366   -7.9343   22.0452 C   0  0  0  0  0  0  0  0  0  0  0  0
    9.4641   -6.7893   21.7474 C   0  0  0  0  0  0  0  0  0  0  0  0
   10.8313   -7.9512   23.5178 C   0  0  0  0  0  0  0  0  0  0  0  0
    8.2802  -11.7384   22.4932 C   0  0  0  0  0  0  0  0  0  0  0  0
    5.7342  -15.9626   25.4986 C   0  0  0  0  0  0  0  0  0  0  0  0
    5.4936  -16.9075   24.4907 C   0  0  0  0  0  0  0  0  0  0  0  0
    4.6491  -18.0129   24.7080 C   0  0  0  0  0  0  0  0  0  0  0  0
    4.0329  -18.1485   25.9354 C   0  0  0  0  0  0  0  0  0  0  0  0
    4.1896  -17.2485   26.9300 N   0  0  0  0  0  0  0  0  0  0  0  0
    5.0378  -16.2008   26.6966 C   0  0  0  0  0  0  0  0  0  0  0  0
    8.3134  -16.3264   26.2538 H   0  0  0  0  0  0  0  0  0  0  0  0
    8.3956  -16.1573   24.4909 H   0  0  0  0  0  0  0  0  0  0  0  0
    9.0467  -14.8857   25.5278 H   0  0  0  0  0  0  0  0  0  0  0  0
    6.8140  -14.3368   26.3682 H   0  0  0  0  0  0  0  0  0  0  0  0
    6.8510  -14.1073   23.4060 H   0  0  0  0  0  0  0  0  0  0  0  0
    5.5701  -10.3786   22.6559 H   0  0  0  0  0  0  0  0  0  0  0  0
    6.5765  -10.7610   21.2976 H   0  0  0  0  0  0  0  0  0  0  0  0
    7.2873   -9.3331   23.9456 H   0  0  0  0  0  0  0  0  0  0  0  0
    7.3933   -8.6582   22.3101 H   0  0  0  0  0  0  0  0  0  0  0  0
    9.3705  -10.2752   23.7103 H   0  0  0  0  0  0  0  0  0  0  0  0
   11.3514   -7.7669   21.4696 H   0  0  0  0  0  0  0  0  0  0  0  0
    8.6292   -6.7899   22.4550 H   0  0  0  0  0  0  0  0  0  0  0  0
    9.9729   -5.8246   21.8494 H   0  0  0  0  0  0  0  0  0  0  0  0
    9.0347   -6.8414   20.7462 H   0  0  0  0  0  0  0  0  0  0  0  0
    9.9582   -8.0602   24.1688 H   0  0  0  0  0  0  0  0  0  0  0  0
   11.3323   -7.0164   23.7913 H   0  0  0  0  0  0  0  0  0  0  0  0
   11.5187   -8.7757   23.7331 H   0  0  0  0  0  0  0  0  0  0  0  0
    8.2986  -12.0044   21.4250 H   0  0  0  0  0  0  0  0  0  0  0  0
    8.9432  -12.4554   22.9944 H   0  0  0  0  0  0  0  0  0  0  0  0
    6.0073  -16.8237   23.5358 H   0  0  0  0  0  0  0  0  0  0  0  0
    4.4787  -18.7459   23.9259 H   0  0  0  0  0  0  0  0  0  0  0  0
    3.3736  -18.9867   26.1309 H   0  0  0  0  0  0  0  0  0  0  0  0
    5.1769  -15.5487   27.5560 H   0  0  0  0  0  0  0  0  0  0  0  0
  1  2  1  0
  2  3  1  0
  3  4  1  0
  4  5  2  0
  4  6  1  0
  6  7  1  0
  7  8  1  0
  8  9  1  0
  9 10  1  0
 10 11  2  0
 10 12  2  0
 10 13  1  0
 13 14  1  0
 13 15  1  0
  9 16  1  0
  2 17  1  0
 17 18  2  0
 18 19  1  0
 19 20  2  0
 20 21  1  0
 21 22  2  0
 16  6  1  0
 22 17  1  0
  1 23  1  0
  1 24  1  0
  1 25  1  0
  2 26  1  0
  3 27  1  0
  7 28  1  0
  7 29  1  0
  8 30  1  0
  8 31  1  0
  9 32  1  0
 13 33  1  0
 14 34  1  0
 14 35  1  0
 14 36  1  0
 15 37  1  0
 15 38  1  0
 15 39  1  0
 16 40  1  0
 16 41  1  0
 18 42  1  0
 19 43  1  0
 20 44  1  0
 22 45  1  0
M  END
>  <Energy>  (919) 
7.3765786280910373

>  <compound_id>  (919) 
6106

>  <target_id>  (919) 
1

>  <reference_id>  (919) 
124

>  <inspiration_ids>  (919) 
[124, 49]

>  <energy_score>  (919) 
24.474785415004533

>  <distance_score>  (919) 
15.310633743067685

>  <path>  (919) 
/opt/xchem-fragalysis-2/maxwin/BulkDock/SCRATCH/511018/C6106-P124/C6106-P124.minimised.mol

>  <scratch_subdir>  (919) 
/opt/xchem-fragalysis-2/maxwin/BulkDock/SCRATCH/511018/C6106-P124

>  <fragmenstein_runtime>  (919) 
32.422767877578735

>  <fragmenstein_outcome>  (919) 
too moved

>  <fragmenstein_mode>  (919) 
expansion

>  <fragmenstein_error>  (919) 


$$$$
C6106-P49
     RDKit          3D

 45 46  0  0  0  0  0  0  0  0999 V2000
    1.3333   -5.4182   26.4240 C   0  0  0  0  0  0  0  0  0  0  0  0
    2.1927   -6.1644   27.4543 C   0  0  0  0  0  0  0  0  0  0  0  0
    3.4295   -6.6024   26.7502 N   0  0  0  0  0  0  0  0  0  0  0  0
    4.8453   -6.5874   27.1830 C   0  0  0  0  0  0  0  0  0  0  0  0
    5.3198   -6.2966   28.2198 O   0  0  0  0  0  0  0  0  0  0  0  0
    5.5016   -7.1530   25.9382 N   0  0  0  0  0  0  0  0  0  0  0  0
    6.9051   -7.6066   25.7079 C   0  0  0  0  0  0  0  0  0  0  0  0
    7.6505   -7.3083   24.4329 C   0  0  0  0  0  0  0  0  0  0  0  0
    7.4710   -5.8498   24.5360 C   0  0  0  0  0  0  0  0  0  0  0  0
    7.9522   -4.9531   23.0513 S   0  0  0  0  0  0  0  0  0  0  0  0
    8.0019   -5.8715   21.9255 O   0  0  0  0  0  0  0  0  0  0  0  0
    7.1007   -3.7808   22.9792 O   0  0  0  0  0  0  0  0  0  0  0  0
    9.6606   -4.3779   23.3536 C   0  0  0  0  0  0  0  0  0  0  0  0
   10.2617   -3.6299   22.1637 C   0  0  0  0  0  0  0  0  0  0  0  0
   10.5784   -5.5305   23.7509 C   0  0  0  0  0  0  0  0  0  0  0  0
    5.9774   -5.9435   24.9543 C   0  0  0  0  0  0  0  0  0  0  0  0
    1.3623   -7.1446   28.3504 C   0  0  0  0  0  0  0  0  0  0  0  0
   -0.0256   -7.3463   28.2293 C   0  0  0  0  0  0  0  0  0  0  0  0
   -0.7654   -7.9821   29.2417 C   0  0  0  0  0  0  0  0  0  0  0  0
   -0.1015   -8.4938   30.3388 C   0  0  0  0  0  0  0  0  0  0  0  0
    1.2253   -8.3803   30.4889 N   0  0  0  0  0  0  0  0  0  0  0  0
    1.9020   -7.6797   29.5233 C   0  0  0  0  0  0  0  0  0  0  0  0
    0.4981   -4.8925   26.8988 H   0  0  0  0  0  0  0  0  0  0  0  0
    0.9295   -6.1060   25.6724 H   0  0  0  0  0  0  0  0  0  0  0  0
    1.9299   -4.6687   25.8907 H   0  0  0  0  0  0  0  0  0  0  0  0
    2.5462   -5.4008   28.1618 H   0  0  0  0  0  0  0  0  0  0  0  0
    3.3723   -6.9848   25.8192 H   0  0  0  0  0  0  0  0  0  0  0  0
    7.4859   -7.2833   26.5877 H   0  0  0  0  0  0  0  0  0  0  0  0
    6.8484   -8.6979   25.8180 H   0  0  0  0  0  0  0  0  0  0  0  0
    7.1604   -7.7603   23.5632 H   0  0  0  0  0  0  0  0  0  0  0  0
    8.6904   -7.6394   24.4683 H   0  0  0  0  0  0  0  0  0  0  0  0
    8.0366   -5.4003   25.3621 H   0  0  0  0  0  0  0  0  0  0  0  0
    9.5795   -3.6802   24.1959 H   0  0  0  0  0  0  0  0  0  0  0  0
   10.4355   -4.2995   21.3177 H   0  0  0  0  0  0  0  0  0  0  0  0
   11.2299   -3.1963   22.4378 H   0  0  0  0  0  0  0  0  0  0  0  0
    9.6140   -2.8077   21.8595 H   0  0  0  0  0  0  0  0  0  0  0  0
   11.6109   -5.1841   23.8691 H   0  0  0  0  0  0  0  0  0  0  0  0
   10.5711   -6.3264   22.9991 H   0  0  0  0  0  0  0  0  0  0  0  0
   10.2782   -5.9657   24.7077 H   0  0  0  0  0  0  0  0  0  0  0  0
    5.6645   -5.0035   25.4267 H   0  0  0  0  0  0  0  0  0  0  0  0
    5.3399   -6.0670   24.0665 H   0  0  0  0  0  0  0  0  0  0  0  0
   -0.5712   -6.9571   27.3752 H   0  0  0  0  0  0  0  0  0  0  0  0
   -1.8383   -8.0751   29.1496 H   0  0  0  0  0  0  0  0  0  0  0  0
   -0.6075   -8.9990   31.1520 H   0  0  0  0  0  0  0  0  0  0  0  0
    2.9581   -7.5250   29.7496 H   0  0  0  0  0  0  0  0  0  0  0  0
  1  2  1  0
  2  3  1  0
  3  4  1  0
  4  5  2  0
  4  6  1  0
  6  7  1  0
  7  8  1  0
  8  9  1  0
  9 10  1  0
 10 11  2  0
 10 12  2  0
 10 13  1  0
 13 14  1  0
 13 15  1  0
  9 16  1  0
  2 17  1  0
 17 18  2  0
 18 19  1  0
 19 20  2  0
 20 21  1  0
 21 22  2  0
 16  6  1  0
 22 17  1  0
  1 23  1  0
  1 24  1  0
  1 25  1  0
  2 26  1  0
  3 27  1  0
  7 28  1  0
  7 29  1  0
  8 30  1  0
  8 31  1  0
  9 32  1  0
 13 33  1  0
 14 34  1  0
 14 35  1  0
 14 36  1  0
 15 37  1  0
 15 38  1  0
 15 39  1  0
 16 40  1  0
 16 41  1  0
 18 42  1  0
 19 43  1  0
 20 44  1  0
 22 45  1  0
M  END
>  <Energy>  (920) 
22.842380631291842

>  <compound_id>  (920) 
6106

>  <target_id>  (920) 
1

>  <reference_id>  (920) 
49

>  <inspiration_ids>  (920) 
[124, 49]

>  <energy_score>  (920) 
39.940587418209645

>  <distance_score>  (920) 
15.344220580869191

>  <path>  (920) 
/opt/xchem-fragalysis-2/maxwin/BulkDock/SCRATCH/511018/C6106-P49/C6106-P49.minimised.mol

>  <scratch_subdir>  (920) 
/opt/xchem-fragalysis-2/maxwin/BulkDock/SCRATCH/511018/C6106-P49

>  <fragmenstein_runtime>  (920) 
20.724785566329956

>  <fragmenstein_outcome>  (920) 
too moved

>  <fragmenstein_mode>  (920) 
expansion

>  <fragmenstein_error>  (920) 


$$$$
C6108-P124
     RDKit          3D

 44 45  0  0  0  0  0  0  0  0999 V2000
    5.4214  -15.0032   23.5079 C   0  0  0  0  0  0  0  0  0  0  0  0
    6.1699  -15.1621   24.7827 C   0  0  0  0  0  0  0  0  0  0  0  0
    5.8941  -16.0720   25.7802 C   0  0  0  0  0  0  0  0  0  0  0  0
    4.8440  -17.1460   26.0704 C   0  0  0  0  0  0  0  0  0  0  0  0
    4.4498  -18.1885   25.2301 C   0  0  0  0  0  0  0  0  0  0  0  0
    3.4799  -19.1373   25.6405 C   0  0  0  0  0  0  0  0  0  0  0  0
    2.9021  -19.0269   26.8952 C   0  0  0  0  0  0  0  0  0  0  0  0
    3.2506  -18.0599   27.7582 N   0  0  0  0  0  0  0  0  0  0  0  0
    4.2312  -17.1947   27.3321 C   0  0  0  0  0  0  0  0  0  0  0  0
    7.3576  -14.1677   25.0632 C   0  0  0  0  0  0  0  0  0  0  0  0
    8.2599  -14.6654   25.6941 O   0  0  0  0  0  0  0  0  0  0  0  0
    7.1607  -12.7921   24.6220 N   0  0  0  0  0  0  0  0  0  0  0  0
    7.9444  -11.5671   24.9047 C   0  0  0  0  0  0  0  0  0  0  0  0
    7.9480  -10.4423   23.9051 C   0  0  0  0  0  0  0  0  0  0  0  0
    8.5964  -11.2339   22.8450 C   0  0  0  0  0  0  0  0  0  0  0  0
    8.5076  -10.4685   21.2200 S   0  0  0  0  0  0  0  0  0  0  0  0
    9.2770  -11.2919   20.3041 O   0  0  0  0  0  0  0  0  0  0  0  0
    7.1110  -10.1942   20.9424 O   0  0  0  0  0  0  0  0  0  0  0  0
    9.3973   -8.8834   21.2455 C   0  0  0  0  0  0  0  0  0  0  0  0
    8.5098   -7.6699   21.4887 C   0  0  0  0  0  0  0  0  0  0  0  0
   10.6192   -8.9045   22.1521 C   0  0  0  0  0  0  0  0  0  0  0  0
    7.8089  -12.5681   23.1305 C   0  0  0  0  0  0  0  0  0  0  0  0
    4.7893  -15.8701   23.3089 H   0  0  0  0  0  0  0  0  0  0  0  0
    4.7902  -14.1102   23.5318 H   0  0  0  0  0  0  0  0  0  0  0  0
    6.1127  -14.9256   22.6633 H   0  0  0  0  0  0  0  0  0  0  0  0
    6.5490  -16.0053   26.6566 H   0  0  0  0  0  0  0  0  0  0  0  0
    4.8964  -18.2818   24.2429 H   0  0  0  0  0  0  0  0  0  0  0  0
    3.1917  -19.9424   24.9723 H   0  0  0  0  0  0  0  0  0  0  0  0
    2.1495  -19.7266   27.2421 H   0  0  0  0  0  0  0  0  0  0  0  0
    4.5603  -16.4812   28.0781 H   0  0  0  0  0  0  0  0  0  0  0  0
    8.9608  -11.8715   25.2080 H   0  0  0  0  0  0  0  0  0  0  0  0
    7.5033  -11.1854   25.8356 H   0  0  0  0  0  0  0  0  0  0  0  0
    8.5300   -9.5854   24.2475 H   0  0  0  0  0  0  0  0  0  0  0  0
    6.9341  -10.1121   23.6562 H   0  0  0  0  0  0  0  0  0  0  0  0
    9.6617  -11.4053   23.0452 H   0  0  0  0  0  0  0  0  0  0  0  0
    9.7559   -8.8107   20.2211 H   0  0  0  0  0  0  0  0  0  0  0  0
    8.0685   -7.7040   22.4899 H   0  0  0  0  0  0  0  0  0  0  0  0
    7.6862   -7.6265   20.7698 H   0  0  0  0  0  0  0  0  0  0  0  0
    9.0819   -6.7405   21.4007 H   0  0  0  0  0  0  0  0  0  0  0  0
   11.2455   -9.7795   21.9498 H   0  0  0  0  0  0  0  0  0  0  0  0
   10.3482   -8.9224   23.2099 H   0  0  0  0  0  0  0  0  0  0  0  0
   11.2326   -8.0119   21.9889 H   0  0  0  0  0  0  0  0  0  0  0  0
    6.9429  -12.6397   22.4601 H   0  0  0  0  0  0  0  0  0  0  0  0
    8.4491  -13.4346   22.9183 H   0  0  0  0  0  0  0  0  0  0  0  0
  1  2  1  0
  2  3  2  3
  3  4  1  0
  4  5  2  0
  5  6  1  0
  6  7  2  0
  7  8  1  0
  8  9  2  0
  2 10  1  0
 10 11  2  0
 10 12  1  0
 12 13  1  0
 13 14  1  0
 14 15  1  0
 15 16  1  0
 16 17  2  0
 16 18  2  0
 16 19  1  0
 19 20  1  0
 19 21  1  0
 15 22  1  0
  9  4  1  0
 22 12  1  0
  1 23  1  0
  1 24  1  0
  1 25  1  0
  3 26  1  0
  5 27  1  0
  6 28  1  0
  7 29  1  0
  9 30  1  0
 13 31  1  0
 13 32  1  0
 14 33  1  0
 14 34  1  0
 15 35  1  0
 19 36  1  0
 20 37  1  0
 20 38  1  0
 20 39  1  0
 21 40  1  0
 21 41  1  0
 21 42  1  0
 22 43  1  0
 22 44  1  0
M  END
>  <Energy>  (921) 
100.05495386542594

>  <compound_id>  (921) 
6108

>  <target_id>  (921) 
1

>  <reference_id>  (921) 
124

>  <inspiration_ids>  (921) 
[124, 49]

>  <energy_score>  (921) 
42.4207011844818

>  <distance_score>  (921) 
15.265498925256113

>  <path>  (921) 
/opt/xchem-fragalysis-2/maxwin/BulkDock/SCRATCH/511018/C6108-P124/C6108-P124.minimised.mol

>  <scratch_subdir>  (921) 
/opt/xchem-fragalysis-2/maxwin/BulkDock/SCRATCH/511018/C6108-P124

>  <fragmenstein_runtime>  (921) 
31.858264684677124

>  <fragmenstein_outcome>  (921) 
too moved

>  <fragmenstein_mode>  (921) 
expansion

>  <fragmenstein_error>  (921) 


$$$$
C6108-P49
     RDKit          3D

 44 45  0  0  0  0  0  0  0  0999 V2000
    0.2186   -5.7887   26.1761 C   0  0  0  0  0  0  0  0  0  0  0  0
   -1.0672   -6.1939   25.4705 C   0  0  0  0  0  0  0  0  0  0  0  0
   -1.9461   -6.9643   26.2065 C   0  0  0  0  0  0  0  0  0  0  0  0
   -3.3046   -7.6811   26.2396 C   0  0  0  0  0  0  0  0  0  0  0  0
   -3.7450   -8.2713   27.4544 C   0  0  0  0  0  0  0  0  0  0  0  0
   -4.9083   -9.0550   27.5439 C   0  0  0  0  0  0  0  0  0  0  0  0
   -5.6485   -9.2407   26.3993 C   0  0  0  0  0  0  0  0  0  0  0  0
   -5.2995   -8.7032   25.2136 N   0  0  0  0  0  0  0  0  0  0  0  0
   -4.1656   -7.9234   25.1754 C   0  0  0  0  0  0  0  0  0  0  0  0
   -1.2044   -5.5613   24.0409 C   0  0  0  0  0  0  0  0  0  0  0  0
   -2.2017   -5.8697   23.4335 O   0  0  0  0  0  0  0  0  0  0  0  0
   -0.1329   -4.6014   23.6981 N   0  0  0  0  0  0  0  0  0  0  0  0
   -0.0136   -3.6517   22.5639 C   0  0  0  0  0  0  0  0  0  0  0  0
    1.3835   -3.0769   22.4195 C   0  0  0  0  0  0  0  0  0  0  0  0
    2.2075   -4.3197   22.5283 C   0  0  0  0  0  0  0  0  0  0  0  0
    3.1950   -4.6648   21.0246 S   0  0  0  0  0  0  0  0  0  0  0  0
    4.3445   -5.4781   21.3916 O   0  0  0  0  0  0  0  0  0  0  0  0
    2.2611   -5.1345   20.0186 O   0  0  0  0  0  0  0  0  0  0  0  0
    3.8865   -3.0809   20.4145 C   0  0  0  0  0  0  0  0  0  0  0  0
    4.6433   -3.2980   19.1076 C   0  0  0  0  0  0  0  0  0  0  0  0
    4.7799   -2.4383   21.4685 C   0  0  0  0  0  0  0  0  0  0  0  0
    1.0462   -5.3291   22.8886 C   0  0  0  0  0  0  0  0  0  0  0  0
    0.3394   -4.7005   26.1855 H   0  0  0  0  0  0  0  0  0  0  0  0
    0.2470   -6.1018   27.2258 H   0  0  0  0  0  0  0  0  0  0  0  0
    1.0856   -6.2487   25.6949 H   0  0  0  0  0  0  0  0  0  0  0  0
   -1.5174   -7.1956   27.1890 H   0  0  0  0  0  0  0  0  0  0  0  0
   -3.1638   -8.1339   28.3630 H   0  0  0  0  0  0  0  0  0  0  0  0
   -5.2187   -9.4953   28.4835 H   0  0  0  0  0  0  0  0  0  0  0  0
   -6.5649   -9.8210   26.4001 H   0  0  0  0  0  0  0  0  0  0  0  0
   -3.9666   -7.4923   24.1971 H   0  0  0  0  0  0  0  0  0  0  0  0
   -0.7045   -2.8335   22.8069 H   0  0  0  0  0  0  0  0  0  0  0  0
   -0.4284   -4.0747   21.6339 H   0  0  0  0  0  0  0  0  0  0  0  0
    1.4579   -2.5126   21.4914 H   0  0  0  0  0  0  0  0  0  0  0  0
    1.6018   -2.3995   23.2530 H   0  0  0  0  0  0  0  0  0  0  0  0
    2.9190   -4.2411   23.3577 H   0  0  0  0  0  0  0  0  0  0  0  0
    3.0388   -2.4275   20.1951 H   0  0  0  0  0  0  0  0  0  0  0  0
    4.0019   -3.7579   18.3493 H   0  0  0  0  0  0  0  0  0  0  0  0
    5.4802   -3.9647   19.2855 H   0  0  0  0  0  0  0  0  0  0  0  0
    5.0120   -2.3506   18.7086 H   0  0  0  0  0  0  0  0  0  0  0  0
    4.2366   -2.2687   22.4025 H   0  0  0  0  0  0  0  0  0  0  0  0
    5.6456   -3.0685   21.6982 H   0  0  0  0  0  0  0  0  0  0  0  0
    5.1513   -1.4690   21.1209 H   0  0  0  0  0  0  0  0  0  0  0  0
    0.6299   -5.8563   22.0166 H   0  0  0  0  0  0  0  0  0  0  0  0
    1.4506   -6.1051   23.5453 H   0  0  0  0  0  0  0  0  0  0  0  0
  1  2  1  0
  2  3  2  3
  3  4  1  0
  4  5  2  0
  5  6  1  0
  6  7  2  0
  7  8  1  0
  8  9  2  0
  2 10  1  0
 10 11  2  0
 10 12  1  0
 12 13  1  0
 13 14  1  0
 14 15  1  0
 15 16  1  0
 16 17  2  0
 16 18  2  0
 16 19  1  0
 19 20  1  0
 19 21  1  0
 15 22  1  0
  9  4  1  0
 22 12  1  0
  1 23  1  0
  1 24  1  0
  1 25  1  0
  3 26  1  0
  5 27  1  0
  6 28  1  0
  7 29  1  0
  9 30  1  0
 13 31  1  0
 13 32  1  0
 14 33  1  0
 14 34  1  0
 15 35  1  0
 19 36  1  0
 20 37  1  0
 20 38  1  0
 20 39  1  0
 21 40  1  0
 21 41  1  0
 21 42  1  0
 22 43  1  0
 22 44  1  0
M  END
>  <Energy>  (922) 
98.273467919070399

>  <compound_id>  (922) 
6108

>  <target_id>  (922) 
1

>  <reference_id>  (922) 
49

>  <inspiration_ids>  (922) 
[124, 49]

>  <energy_score>  (922) 
40.63921523813019

>  <distance_score>  (922) 
15.81142893767628

>  <path>  (922) 
/opt/xchem-fragalysis-2/maxwin/BulkDock/SCRATCH/511018/C6108-P49/C6108-P49.minimised.mol

>  <scratch_subdir>  (922) 
/opt/xchem-fragalysis-2/maxwin/BulkDock/SCRATCH/511018/C6108-P49

>  <fragmenstein_runtime>  (922) 
17.53569531440735

>  <fragmenstein_outcome>  (922) 
too moved

>  <fragmenstein_mode>  (922) 
expansion

>  <fragmenstein_error>  (922) 


$$$$
C6109-P124
     RDKit          3D

 45 46  0  0  0  0  0  0  0  0999 V2000
   11.3010   -5.7633   21.8210 C   0  0  0  0  0  0  0  0  0  0  0  0
   10.0681   -4.9299   22.1430 C   0  0  0  0  0  0  0  0  0  0  0  0
   10.0845   -4.5041   23.6070 C   0  0  0  0  0  0  0  0  0  0  0  0
    8.5244   -5.7422   21.7001 S   0  0  0  0  0  0  0  0  0  0  0  0
    8.5660   -5.9963   20.2788 O   0  0  0  0  0  0  0  0  0  0  0  0
    8.3641   -6.8495   22.6203 O   0  0  0  0  0  0  0  0  0  0  0  0
    7.2114   -4.5373   21.9613 C   0  0  0  0  0  0  0  0  0  0  0  0
    6.5960   -4.6121   23.3318 C   0  0  0  0  0  0  0  0  0  0  0  0
    5.4015   -5.5409   23.1593 C   0  0  0  0  0  0  0  0  0  0  0  0
    4.9786   -5.5298   21.7615 N   0  0  0  0  0  0  0  0  0  0  0  0
    3.5449   -5.1021   21.6474 C   0  0  0  0  0  0  0  0  0  0  0  0
    2.4845   -6.2528   21.9454 C   0  0  0  0  0  0  0  0  0  0  0  0
    1.1078   -5.9359   22.6701 C   0  0  0  0  0  0  0  0  0  0  0  0
    0.9993   -4.9349   23.3280 O   0  0  0  0  0  0  0  0  0  0  0  0
    0.1622   -7.0638   22.4613 N   0  0  0  0  0  0  0  0  0  0  0  0
   -1.1130   -7.3403   23.0515 C   0  0  0  0  0  0  0  0  0  0  0  0
   -2.0152   -8.2155   22.4081 C   0  0  0  0  0  0  0  0  0  0  0  0
   -3.2213   -8.6301   23.0218 C   0  0  0  0  0  0  0  0  0  0  0  0
   -3.4806   -8.2156   24.3138 C   0  0  0  0  0  0  0  0  0  0  0  0
   -2.6364   -7.4106   24.9903 N   0  0  0  0  0  0  0  0  0  0  0  0
   -1.5001   -6.9653   24.3385 C   0  0  0  0  0  0  0  0  0  0  0  0
    5.9686   -4.6993   21.0575 C   0  0  0  0  0  0  0  0  0  0  0  0
   12.1813   -5.3946   22.3592 H   0  0  0  0  0  0  0  0  0  0  0  0
   11.5534   -5.6942   20.7651 H   0  0  0  0  0  0  0  0  0  0  0  0
   11.1612   -6.8171   22.0806 H   0  0  0  0  0  0  0  0  0  0  0  0
   10.1132   -4.0660   21.5078 H   0  0  0  0  0  0  0  0  0  0  0  0
    9.2735   -3.8060   23.8303 H   0  0  0  0  0  0  0  0  0  0  0  0
    9.9813   -5.3651   24.2755 H   0  0  0  0  0  0  0  0  0  0  0  0
   11.0215   -3.9938   23.8551 H   0  0  0  0  0  0  0  0  0  0  0  0
    7.6745   -3.5618   21.8116 H   0  0  0  0  0  0  0  0  0  0  0  0
    7.2681   -4.9596   24.1201 H   0  0  0  0  0  0  0  0  0  0  0  0
    6.2327   -3.6174   23.6204 H   0  0  0  0  0  0  0  0  0  0  0  0
    4.5846   -5.2283   23.8109 H   0  0  0  0  0  0  0  0  0  0  0  0
    5.6767   -6.5544   23.4425 H   0  0  0  0  0  0  0  0  0  0  0  0
    3.3651   -4.7886   20.6108 H   0  0  0  0  0  0  0  0  0  0  0  0
    3.3453   -4.2218   22.2705 H   0  0  0  0  0  0  0  0  0  0  0  0
    2.2433   -6.7184   20.9835 H   0  0  0  0  0  0  0  0  0  0  0  0
    2.9610   -7.0107   22.5779 H   0  0  0  0  0  0  0  0  0  0  0  0
    0.5508   -7.7019   21.7752 H   0  0  0  0  0  0  0  0  0  0  0  0
   -1.7849   -8.5752   21.4072 H   0  0  0  0  0  0  0  0  0  0  0  0
   -3.9254   -9.2585   22.4879 H   0  0  0  0  0  0  0  0  0  0  0  0
   -4.3821   -8.5052   24.8438 H   0  0  0  0  0  0  0  0  0  0  0  0
   -0.8562   -6.3278   24.9420 H   0  0  0  0  0  0  0  0  0  0  0  0
    6.1842   -5.1370   20.0810 H   0  0  0  0  0  0  0  0  0  0  0  0
    5.5247   -3.7073   20.9087 H   0  0  0  0  0  0  0  0  0  0  0  0
  1  2  1  0
  2  3  1  0
  2  4  1  0
  4  5  2  0
  4  6  2  0
  4  7  1  0
  7  8  1  0
  8  9  1  0
  9 10  1  0
 10 11  1  0
 11 12  1  0
 12 13  1  0
 13 14  2  0
 13 15  1  0
 15 16  1  0
 16 17  2  0
 17 18  1  0
 18 19  2  0
 19 20  1  0
 20 21  2  0
 10 22  1  0
 22  7  1  0
 21 16  1  0
  1 23  1  0
  1 24  1  0
  1 25  1  0
  2 26  1  0
  3 27  1  0
  3 28  1  0
  3 29  1  0
  7 30  1  0
  8 31  1  0
  8 32  1  0
  9 33  1  0
  9 34  1  0
 11 35  1  0
 11 36  1  0
 12 37  1  0
 12 38  1  0
 15 39  1  0
 17 40  1  0
 18 41  1  0
 19 42  1  0
 21 43  1  0
 22 44  1  0
 22 45  1  0
M  END
>  <Energy>  (923) 
50.613007888138455

>  <compound_id>  (923) 
6109

>  <target_id>  (923) 
1

>  <reference_id>  (923) 
124

>  <inspiration_ids>  (923) 
[124, 49]

>  <energy_score>  (923) 
-28.003387813043418

>  <distance_score>  (923) 
15.195448468789655

>  <path>  (923) 
/opt/xchem-fragalysis-2/maxwin/BulkDock/SCRATCH/511018/C6109-P124/C6109-P124.minimised.mol

>  <scratch_subdir>  (923) 
/opt/xchem-fragalysis-2/maxwin/BulkDock/SCRATCH/511018/C6109-P124

>  <fragmenstein_runtime>  (923) 
30.22503638267517

>  <fragmenstein_outcome>  (923) 
too moved

>  <fragmenstein_mode>  (923) 
expansion

>  <fragmenstein_error>  (923) 


$$$$
C6109-P49
     RDKit          3D

 45 46  0  0  0  0  0  0  0  0999 V2000
   11.7307   -2.5393   19.4943 C   0  0  0  0  0  0  0  0  0  0  0  0
   12.1050   -3.7554   20.3407 C   0  0  0  0  0  0  0  0  0  0  0  0
   13.5747   -4.1079   20.1142 C   0  0  0  0  0  0  0  0  0  0  0  0
   11.7939   -3.4772   22.1252 S   0  0  0  0  0  0  0  0  0  0  0  0
   11.8758   -2.0480   22.3537 O   0  0  0  0  0  0  0  0  0  0  0  0
   12.6415   -4.3838   22.8776 O   0  0  0  0  0  0  0  0  0  0  0  0
   10.1054   -3.9752   22.4421 C   0  0  0  0  0  0  0  0  0  0  0  0
    9.8197   -5.4486   22.1994 C   0  0  0  0  0  0  0  0  0  0  0  0
    8.4619   -5.6390   22.8833 C   0  0  0  0  0  0  0  0  0  0  0  0
    8.6104   -4.9226   24.1405 N   0  0  0  0  0  0  0  0  0  0  0  0
    7.3681   -4.6056   24.9245 C   0  0  0  0  0  0  0  0  0  0  0  0
    6.3071   -5.7829   25.2963 C   0  0  0  0  0  0  0  0  0  0  0  0
    5.2142   -5.4998   26.4730 C   0  0  0  0  0  0  0  0  0  0  0  0
    5.3963   -4.5453   27.1830 O   0  0  0  0  0  0  0  0  0  0  0  0
    4.1263   -6.5273   26.4846 N   0  0  0  0  0  0  0  0  0  0  0  0
    3.0182   -6.7365   27.4139 C   0  0  0  0  0  0  0  0  0  0  0  0
    2.9217   -6.1619   28.6757 C   0  0  0  0  0  0  0  0  0  0  0  0
    1.8540   -6.4840   29.5608 C   0  0  0  0  0  0  0  0  0  0  0  0
    0.8541   -7.3534   29.1609 C   0  0  0  0  0  0  0  0  0  0  0  0
    0.8690   -7.9210   27.9526 N   0  0  0  0  0  0  0  0  0  0  0  0
    1.9469   -7.6251   27.1559 C   0  0  0  0  0  0  0  0  0  0  0  0
    9.5684   -3.7878   23.8797 C   0  0  0  0  0  0  0  0  0  0  0  0
   12.4243   -1.7086   19.6655 H   0  0  0  0  0  0  0  0  0  0  0  0
   10.7320   -2.1774   19.7422 H   0  0  0  0  0  0  0  0  0  0  0  0
   11.7569   -2.7850   18.4277 H   0  0  0  0  0  0  0  0  0  0  0  0
   11.5009   -4.6198   20.0558 H   0  0  0  0  0  0  0  0  0  0  0  0
   14.2351   -3.3151   20.4818 H   0  0  0  0  0  0  0  0  0  0  0  0
   13.7792   -4.2590   19.0490 H   0  0  0  0  0  0  0  0  0  0  0  0
   13.8423   -5.0327   20.6356 H   0  0  0  0  0  0  0  0  0  0  0  0
    9.5058   -3.3257   21.8043 H   0  0  0  0  0  0  0  0  0  0  0  0
   10.5752   -6.0819   22.6817 H   0  0  0  0  0  0  0  0  0  0  0  0
    9.7938   -5.7280   21.1447 H   0  0  0  0  0  0  0  0  0  0  0  0
    7.6608   -5.2039   22.2751 H   0  0  0  0  0  0  0  0  0  0  0  0
    8.2451   -6.6994   23.0427 H   0  0  0  0  0  0  0  0  0  0  0  0
    7.6937   -4.1677   25.8756 H   0  0  0  0  0  0  0  0  0  0  0  0
    6.8039   -3.8267   24.3964 H   0  0  0  0  0  0  0  0  0  0  0  0
    6.8792   -6.6571   25.6295 H   0  0  0  0  0  0  0  0  0  0  0  0
    5.7617   -6.0525   24.3850 H   0  0  0  0  0  0  0  0  0  0  0  0
    4.2408   -7.1412   25.6917 H   0  0  0  0  0  0  0  0  0  0  0  0
    3.6913   -5.4727   29.0173 H   0  0  0  0  0  0  0  0  0  0  0  0
    1.8211   -6.0310   30.5467 H   0  0  0  0  0  0  0  0  0  0  0  0
    0.0178   -7.6066   29.8023 H   0  0  0  0  0  0  0  0  0  0  0  0
    1.8904   -8.2101   26.2611 H   0  0  0  0  0  0  0  0  0  0  0  0
   10.3709   -3.8297   24.6232 H   0  0  0  0  0  0  0  0  0  0  0  0
    9.0670   -2.8172   23.9667 H   0  0  0  0  0  0  0  0  0  0  0  0
  1  2  1  0
  2  3  1  0
  2  4  1  0
  4  5  2  0
  4  6  2  0
  4  7  1  0
  7  8  1  0
  8  9  1  0
  9 10  1  0
 10 11  1  0
 11 12  1  0
 12 13  1  0
 13 14  2  0
 13 15  1  0
 15 16  1  0
 16 17  2  0
 17 18  1  0
 18 19  2  0
 19 20  1  0
 20 21  2  0
 10 22  1  0
 22  7  1  0
 21 16  1  0
  1 23  1  0
  1 24  1  0
  1 25  1  0
  2 26  1  0
  3 27  1  0
  3 28  1  0
  3 29  1  0
  7 30  1  0
  8 31  1  0
  8 32  1  0
  9 33  1  0
  9 34  1  0
 11 35  1  0
 11 36  1  0
 12 37  1  0
 12 38  1  0
 15 39  1  0
 17 40  1  0
 18 41  1  0
 19 42  1  0
 21 43  1  0
 22 44  1  0
 22 45  1  0
M  END
>  <Energy>  (924) 
49.930950519805108

>  <compound_id>  (924) 
6109

>  <target_id>  (924) 
1

>  <reference_id>  (924) 
49

>  <inspiration_ids>  (924) 
[124, 49]

>  <energy_score>  (924) 
-28.685445181369573

>  <distance_score>  (924) 
14.792825881476814

>  <path>  (924) 
/opt/xchem-fragalysis-2/maxwin/BulkDock/SCRATCH/511018/C6109-P49/C6109-P49.minimised.mol

>  <scratch_subdir>  (924) 
/opt/xchem-fragalysis-2/maxwin/BulkDock/SCRATCH/511018/C6109-P49

>  <fragmenstein_runtime>  (924) 
22.95472025871277

>  <fragmenstein_outcome>  (924) 
too moved

>  <fragmenstein_mode>  (924) 
expansion

>  <fragmenstein_error>  (924) 


$$$$
C6110-P124
     RDKit          3D

 44 45  0  0  0  0  0  0  0  0999 V2000
   10.9450   -7.1650   22.5676 C   0  0  0  0  0  0  0  0  0  0  0  0
   10.9821   -8.1073   23.7876 C   0  0  0  0  0  0  0  0  0  0  0  0
   12.1743   -9.0491   23.7051 C   0  0  0  0  0  0  0  0  0  0  0  0
    9.4124   -9.0223   23.9154 S   0  0  0  0  0  0  0  0  0  0  0  0
    9.2814   -9.7199   22.6474 O   0  0  0  0  0  0  0  0  0  0  0  0
    8.4339   -8.0315   24.3208 O   0  0  0  0  0  0  0  0  0  0  0  0
    9.4680  -10.2655   25.2931 C   0  0  0  0  0  0  0  0  0  0  0  0
   10.0471  -11.5632   24.8871 C   0  0  0  0  0  0  0  0  0  0  0  0
    8.7546  -12.2937   24.5825 C   0  0  0  0  0  0  0  0  0  0  0  0
    7.7275  -12.3876   25.6695 N   0  0  0  0  0  0  0  0  0  0  0  0
    7.7894  -13.0249   26.9977 C   0  0  0  0  0  0  0  0  0  0  0  0
    8.7160  -13.5511   27.5713 O   0  0  0  0  0  0  0  0  0  0  0  0
    6.3563  -13.1269   27.7547 C   0  0  0  0  0  0  0  0  0  0  0  0
    5.4212  -14.8631   27.5760 S   0  0  0  0  0  0  0  0  0  0  0  0
    4.2736  -15.0261   29.1192 C   0  0  0  0  0  0  0  0  0  0  0  0
    3.0801  -16.0208   29.2149 C   0  0  0  0  0  0  0  0  0  0  0  0
    2.1437  -15.8713   30.2716 C   0  0  0  0  0  0  0  0  0  0  0  0
    1.0329  -16.7198   30.4241 C   0  0  0  0  0  0  0  0  0  0  0  0
    0.8794  -17.7485   29.5209 C   0  0  0  0  0  0  0  0  0  0  0  0
    1.7573  -17.9698   28.5193 N   0  0  0  0  0  0  0  0  0  0  0  0
    2.8288  -17.1158   28.3976 C   0  0  0  0  0  0  0  0  0  0  0  0
    8.0564  -10.8109   25.7770 C   0  0  0  0  0  0  0  0  0  0  0  0
   10.8479   -7.7378   21.6419 H   0  0  0  0  0  0  0  0  0  0  0  0
   10.0936   -6.4797   22.6295 H   0  0  0  0  0  0  0  0  0  0  0  0
   11.8608   -6.5683   22.5101 H   0  0  0  0  0  0  0  0  0  0  0  0
   11.0535   -7.5087   24.7030 H   0  0  0  0  0  0  0  0  0  0  0  0
   12.0973   -9.7207   22.8437 H   0  0  0  0  0  0  0  0  0  0  0  0
   13.1083   -8.4851   23.6119 H   0  0  0  0  0  0  0  0  0  0  0  0
   12.2515   -9.6645   24.6064 H   0  0  0  0  0  0  0  0  0  0  0  0
   10.0016   -9.7781   26.1147 H   0  0  0  0  0  0  0  0  0  0  0  0
   10.5670  -12.0447   25.7227 H   0  0  0  0  0  0  0  0  0  0  0  0
   10.7178  -11.5321   24.0261 H   0  0  0  0  0  0  0  0  0  0  0  0
    8.2623  -11.9074   23.6794 H   0  0  0  0  0  0  0  0  0  0  0  0
    9.0298  -13.3326   24.3655 H   0  0  0  0  0  0  0  0  0  0  0  0
    6.5411  -12.9827   28.8239 H   0  0  0  0  0  0  0  0  0  0  0  0
    5.7186  -12.3266   27.3989 H   0  0  0  0  0  0  0  0  0  0  0  0
    4.9542  -15.2671   29.9434 H   0  0  0  0  0  0  0  0  0  0  0  0
    3.8898  -14.0150   29.2857 H   0  0  0  0  0  0  0  0  0  0  0  0
    2.2743  -15.0616   30.9881 H   0  0  0  0  0  0  0  0  0  0  0  0
    0.3222  -16.5725   31.2284 H   0  0  0  0  0  0  0  0  0  0  0  0
    0.0466  -18.4413   29.5766 H   0  0  0  0  0  0  0  0  0  0  0  0
    3.4940  -17.3583   27.5711 H   0  0  0  0  0  0  0  0  0  0  0  0
    7.2513  -10.3202   25.2155 H   0  0  0  0  0  0  0  0  0  0  0  0
    7.9154  -10.5407   26.8315 H   0  0  0  0  0  0  0  0  0  0  0  0
  1  2  1  0
  2  3  1  0
  2  4  1  0
  4  5  2  0
  4  6  2  0
  4  7  1  0
  7  8  1  0
  8  9  1  0
  9 10  1  0
 10 11  1  0
 11 12  2  0
 11 13  1  0
 13 14  1  0
 14 15  1  0
 15 16  1  0
 16 17  2  0
 17 18  1  0
 18 19  2  0
 19 20  1  0
 20 21  2  0
 10 22  1  0
 22  7  1  0
 21 16  1  0
  1 23  1  0
  1 24  1  0
  1 25  1  0
  2 26  1  0
  3 27  1  0
  3 28  1  0
  3 29  1  0
  7 30  1  0
  8 31  1  0
  8 32  1  0
  9 33  1  0
  9 34  1  0
 13 35  1  0
 13 36  1  0
 15 37  1  0
 15 38  1  0
 17 39  1  0
 18 40  1  0
 19 41  1  0
 21 42  1  0
 22 43  1  0
 22 44  1  0
M  END
>  <Energy>  (925) 
128.53544584711349

>  <compound_id>  (925) 
6110

>  <target_id>  (925) 
1

>  <reference_id>  (925) 
124

>  <inspiration_ids>  (925) 
[124, 49]

>  <energy_score>  (925) 
54.11749761033428

>  <distance_score>  (925) 
14.764361114947093

>  <path>  (925) 
/opt/xchem-fragalysis-2/maxwin/BulkDock/SCRATCH/511018/C6110-P124/C6110-P124.minimised.mol

>  <scratch_subdir>  (925) 
/opt/xchem-fragalysis-2/maxwin/BulkDock/SCRATCH/511018/C6110-P124

>  <fragmenstein_runtime>  (925) 
20.417425870895386

>  <fragmenstein_outcome>  (925) 
too moved

>  <fragmenstein_mode>  (925) 
expansion

>  <fragmenstein_error>  (925) 


$$$$
C6110-P49
     RDKit          3D

 44 45  0  0  0  0  0  0  0  0999 V2000
   11.0271   -7.3846   19.6092 C   0  0  0  0  0  0  0  0  0  0  0  0
    9.9579   -7.3532   20.7031 C   0  0  0  0  0  0  0  0  0  0  0  0
   10.3246   -6.2935   21.7427 C   0  0  0  0  0  0  0  0  0  0  0  0
    9.7624   -9.0090   21.5260 S   0  0  0  0  0  0  0  0  0  0  0  0
   10.3162   -9.9824   20.6036 O   0  0  0  0  0  0  0  0  0  0  0  0
   10.2736   -8.9131   22.8794 O   0  0  0  0  0  0  0  0  0  0  0  0
    7.9981   -9.3856   21.6712 C   0  0  0  0  0  0  0  0  0  0  0  0
    7.1745   -8.1540   21.8518 C   0  0  0  0  0  0  0  0  0  0  0  0
    6.6039   -8.4760   23.1926 C   0  0  0  0  0  0  0  0  0  0  0  0
    5.9360   -9.8188   23.1907 N   0  0  0  0  0  0  0  0  0  0  0  0
    5.3018  -10.6161   24.3182 C   0  0  0  0  0  0  0  0  0  0  0  0
    5.2941  -10.3471   25.4927 O   0  0  0  0  0  0  0  0  0  0  0  0
    4.2038  -12.1865   23.9915 C   0  0  0  0  0  0  0  0  0  0  0  0
    3.3664  -12.8224   25.9149 S   0  0  0  0  0  0  0  0  0  0  0  0
    2.6423  -14.9140   26.2495 C   0  0  0  0  0  0  0  0  0  0  0  0
    1.5096  -15.7547   27.1714 C   0  0  0  0  0  0  0  0  0  0  0  0
    1.1534  -17.0489   26.7255 C   0  0  0  0  0  0  0  0  0  0  0  0
    0.1173  -17.7878   27.3317 C   0  0  0  0  0  0  0  0  0  0  0  0
   -0.5532  -17.2365   28.4041 C   0  0  0  0  0  0  0  0  0  0  0  0
   -0.2352  -16.0284   28.9026 N   0  0  0  0  0  0  0  0  0  0  0  0
    0.7825  -15.3361   28.2951 C   0  0  0  0  0  0  0  0  0  0  0  0
    7.4698  -10.2749   22.9250 C   0  0  0  0  0  0  0  0  0  0  0  0
   10.7419   -8.0750   18.8092 H   0  0  0  0  0  0  0  0  0  0  0  0
   11.9920   -7.7151   20.0081 H   0  0  0  0  0  0  0  0  0  0  0  0
   11.1607   -6.3903   19.1727 H   0  0  0  0  0  0  0  0  0  0  0  0
    9.0049   -7.1201   20.2208 H   0  0  0  0  0  0  0  0  0  0  0  0
   11.2862   -6.5210   22.2164 H   0  0  0  0  0  0  0  0  0  0  0  0
   10.4139   -5.3058   21.2811 H   0  0  0  0  0  0  0  0  0  0  0  0
    9.5754   -6.2271   22.5368 H   0  0  0  0  0  0  0  0  0  0  0  0
    7.7200   -9.8631   20.7268 H   0  0  0  0  0  0  0  0  0  0  0  0
    6.3838   -8.0963   21.0950 H   0  0  0  0  0  0  0  0  0  0  0  0
    7.6857   -7.1958   21.8872 H   0  0  0  0  0  0  0  0  0  0  0  0
    7.2908   -8.3395   24.0464 H   0  0  0  0  0  0  0  0  0  0  0  0
    5.8445   -7.7253   23.4339 H   0  0  0  0  0  0  0  0  0  0  0  0
    4.6155  -13.0787   23.5756 H   0  0  0  0  0  0  0  0  0  0  0  0
    3.3296  -12.0341   23.3766 H   0  0  0  0  0  0  0  0  0  0  0  0
    3.3885  -15.0385   27.0318 H   0  0  0  0  0  0  0  0  0  0  0  0
    1.7940  -14.2419   26.2970 H   0  0  0  0  0  0  0  0  0  0  0  0
    1.6627  -17.4848   25.8658 H   0  0  0  0  0  0  0  0  0  0  0  0
   -0.1510  -18.7692   26.9549 H   0  0  0  0  0  0  0  0  0  0  0  0
   -1.3629  -17.7582   28.9037 H   0  0  0  0  0  0  0  0  0  0  0  0
    0.9453  -14.3825   28.7787 H   0  0  0  0  0  0  0  0  0  0  0  0
    8.0606  -10.1335   23.8453 H   0  0  0  0  0  0  0  0  0  0  0  0
    7.6131  -11.3179   22.7137 H   0  0  0  0  0  0  0  0  0  0  0  0
  1  2  1  0
  2  3  1  0
  2  4  1  0
  4  5  2  0
  4  6  2  0
  4  7  1  0
  7  8  1  0
  8  9  1  0
  9 10  1  0
 10 11  1  0
 11 12  2  0
 11 13  1  0
 13 14  1  0
 14 15  1  0
 15 16  1  0
 16 17  2  0
 17 18  1  0
 18 19  2  0
 19 20  1  0
 20 21  2  0
 10 22  1  0
 22  7  1  0
 21 16  1  0
  1 23  1  0
  1 24  1  0
  1 25  1  0
  2 26  1  0
  3 27  1  0
  3 28  1  0
  3 29  1  0
  7 30  1  0
  8 31  1  0
  8 32  1  0
  9 33  1  0
  9 34  1  0
 13 35  1  0
 13 36  1  0
 15 37  1  0
 15 38  1  0
 17 39  1  0
 18 40  1  0
 19 41  1  0
 21 42  1  0
 22 43  1  0
 22 44  1  0
M  END
>  <Energy>  (926) 
307.00717308128912

>  <compound_id>  (926) 
6110

>  <target_id>  (926) 
1

>  <reference_id>  (926) 
49

>  <inspiration_ids>  (926) 
[124, 49]

>  <energy_score>  (926) 
232.58922484451512

>  <distance_score>  (926) 
13.493153880829416

>  <path>  (926) 
/opt/xchem-fragalysis-2/maxwin/BulkDock/SCRATCH/511018/C6110-P49/C6110-P49.minimised.mol

>  <scratch_subdir>  (926) 
/opt/xchem-fragalysis-2/maxwin/BulkDock/SCRATCH/511018/C6110-P49

>  <fragmenstein_runtime>  (926) 
14.24556016921997

>  <fragmenstein_outcome>  (926) 
too moved

>  <fragmenstein_mode>  (926) 
expansion

>  <fragmenstein_error>  (926) 


$$$$
C6111-P124
     RDKit          3D

 44 45  0  0  0  0  0  0  0  0999 V2000
    9.2900   -6.2855   22.5745 C   0  0  0  0  0  0  0  0  0  0  0  0
    8.1445   -6.4545   23.5877 C   0  0  0  0  0  0  0  0  0  0  0  0
    6.8018   -6.4098   22.8654 C   0  0  0  0  0  0  0  0  0  0  0  0
    8.3286   -8.0197   24.5476 S   0  0  0  0  0  0  0  0  0  0  0  0
    8.3859   -9.0776   23.5546 O   0  0  0  0  0  0  0  0  0  0  0  0
    9.4309   -7.8375   25.4740 O   0  0  0  0  0  0  0  0  0  0  0  0
    6.8272   -8.2506   25.5569 C   0  0  0  0  0  0  0  0  0  0  0  0
    6.5832   -7.1277   26.5518 C   0  0  0  0  0  0  0  0  0  0  0  0
    5.6978   -7.7620   27.6735 C   0  0  0  0  0  0  0  0  0  0  0  0
    5.3198   -9.1188   27.2176 N   0  0  0  0  0  0  0  0  0  0  0  0
    4.3940  -10.1519   28.0799 C   0  0  0  0  0  0  0  0  0  0  0  0
    2.4146  -10.5981   27.9379 C   0  0  0  0  0  0  0  0  0  0  0  0
    1.3178  -11.9805   26.8448 C   0  0  0  0  0  0  0  0  0  0  0  0
    0.8552  -13.9271   26.4382 C   0  0  0  0  0  0  0  0  0  0  0  0
    1.7482  -15.1118   27.5969 C   0  0  0  0  0  0  0  0  0  0  0  0
    1.7439  -16.5661   27.9910 C   0  0  0  0  0  0  0  0  0  0  0  0
    0.8055  -16.6999   28.9004 C   0  0  0  0  0  0  0  0  0  0  0  0
   -0.1498  -15.7138   28.8654 N   0  0  0  0  0  0  0  0  0  0  0  0
   -0.2826  -14.6208   27.7022 C   0  0  0  0  0  0  0  0  0  0  0  0
    6.6697   -9.4781   26.5304 C   0  0  0  0  0  0  0  0  0  0  0  0
   10.2595   -6.3229   23.0815 H   0  0  0  0  0  0  0  0  0  0  0  0
    9.2127   -5.3239   22.0567 H   0  0  0  0  0  0  0  0  0  0  0  0
    9.2764   -7.0822   21.8234 H   0  0  0  0  0  0  0  0  0  0  0  0
    8.1936   -5.6476   24.3274 H   0  0  0  0  0  0  0  0  0  0  0  0
    6.7192   -5.5036   22.2557 H   0  0  0  0  0  0  0  0  0  0  0  0
    5.9679   -6.4000   23.5725 H   0  0  0  0  0  0  0  0  0  0  0  0
    6.6721   -7.2753   22.2073 H   0  0  0  0  0  0  0  0  0  0  0  0
    6.0105   -8.2938   24.8268 H   0  0  0  0  0  0  0  0  0  0  0  0
    6.0688   -6.2891   26.0705 H   0  0  0  0  0  0  0  0  0  0  0  0
    7.5117   -6.7474   26.9911 H   0  0  0  0  0  0  0  0  0  0  0  0
    6.2562   -7.8111   28.6153 H   0  0  0  0  0  0  0  0  0  0  0  0
    4.8679   -7.0832   27.7990 H   0  0  0  0  0  0  0  0  0  0  0  0
    5.0117  -11.0718   28.1098 H   0  0  0  0  0  0  0  0  0  0  0  0
    4.4909   -9.8988   29.1022 H   0  0  0  0  0  0  0  0  0  0  0  0
    2.2244  -10.7594   29.0129 H   0  0  0  0  0  0  0  0  0  0  0  0
    1.8481   -9.6798   27.8060 H   0  0  0  0  0  0  0  0  0  0  0  0
    0.5719  -11.3422   27.3023 H   0  0  0  0  0  0  0  0  0  0  0  0
    1.2852  -11.7522   25.8024 H   0  0  0  0  0  0  0  0  0  0  0  0
    2.8198  -14.7575   27.5608 H   0  0  0  0  0  0  0  0  0  0  0  0
    2.6267  -17.1941   27.9256 H   0  0  0  0  0  0  0  0  0  0  0  0
    0.8716  -17.4082   29.7147 H   0  0  0  0  0  0  0  0  0  0  0  0
   -1.3900  -14.8554   27.5664 H   0  0  0  0  0  0  0  0  0  0  0  0
    6.6917  -10.4390   26.0120 H   0  0  0  0  0  0  0  0  0  0  0  0
    7.4716   -9.5103   27.2803 H   0  0  0  0  0  0  0  0  0  0  0  0
  1  2  1  0
  2  3  1  0
  2  4  1  0
  4  5  2  0
  4  6  2  0
  4  7  1  0
  7  8  1  0
  8  9  1  0
  9 10  1  0
 10 11  1  0
 11 12  1  0
 12 13  1  0
 13 14  1  0
 14 15  2  0
 15 16  1  0
 16 17  2  0
 17 18  1  0
 18 19  2  0
 10 20  1  0
 20  7  1  0
 19 14  1  0
  1 21  1  0
  1 22  1  0
  1 23  1  0
  2 24  1  0
  3 25  1  0
  3 26  1  0
  3 27  1  0
  7 28  1  0
  8 29  1  0
  8 30  1  0
  9 31  1  0
  9 32  1  0
 11 33  1  0
 11 34  1  0
 12 35  1  0
 12 36  1  0
 13 37  1  0
 13 38  1  0
 15 39  1  0
 16 40  1  0
 17 41  1  0
 19 42  1  0
 20 43  1  0
 20 44  1  0
M  END
>  <Energy>  (927) 
615.63377358880666

>  <compound_id>  (927) 
6111

>  <target_id>  (927) 
1

>  <reference_id>  (927) 
124

>  <inspiration_ids>  (927) 
[124, 49]

>  <energy_score>  (927) 
553.779708628085

>  <distance_score>  (927) 
14.873090195842643

>  <path>  (927) 
/opt/xchem-fragalysis-2/maxwin/BulkDock/SCRATCH/511018/C6111-P124/C6111-P124.minimised.mol

>  <scratch_subdir>  (927) 
/opt/xchem-fragalysis-2/maxwin/BulkDock/SCRATCH/511018/C6111-P124

>  <fragmenstein_runtime>  (927) 
20.90927791595459

>  <fragmenstein_outcome>  (927) 
too moved

>  <fragmenstein_mode>  (927) 
expansion

>  <fragmenstein_error>  (927) 


$$$$
C6111-P49
     RDKit          3D

 44 45  0  0  0  0  0  0  0  0999 V2000
   12.9820   -2.4251   18.8292 C   0  0  0  0  0  0  0  0  0  0  0  0
   13.7858   -3.6982   19.0872 C   0  0  0  0  0  0  0  0  0  0  0  0
   14.7180   -3.5709   20.2825 C   0  0  0  0  0  0  0  0  0  0  0  0
   12.7476   -5.1709   19.1756 S   0  0  0  0  0  0  0  0  0  0  0  0
   11.6164   -4.9070   18.3186 O   0  0  0  0  0  0  0  0  0  0  0  0
   13.6112   -6.3054   18.8890 O   0  0  0  0  0  0  0  0  0  0  0  0
   12.1328   -5.4263   20.8383 C   0  0  0  0  0  0  0  0  0  0  0  0
   11.4009   -4.2589   21.4503 C   0  0  0  0  0  0  0  0  0  0  0  0
   10.5489   -4.9348   22.5150 C   0  0  0  0  0  0  0  0  0  0  0  0
   10.0333   -6.1776   21.8993 N   0  0  0  0  0  0  0  0  0  0  0  0
    9.6103   -7.1601   22.9544 C   0  0  0  0  0  0  0  0  0  0  0  0
    8.4367   -8.2319   22.7031 C   0  0  0  0  0  0  0  0  0  0  0  0
    7.9090   -8.9638   24.0740 C   0  0  0  0  0  0  0  0  0  0  0  0
    6.8483  -10.1183   24.3014 C   0  0  0  0  0  0  0  0  0  0  0  0
    6.4473  -10.4479   25.6255 C   0  0  0  0  0  0  0  0  0  0  0  0
    5.6380  -11.5650   25.9198 C   0  0  0  0  0  0  0  0  0  0  0  0
    5.2099  -12.3535   24.8738 C   0  0  0  0  0  0  0  0  0  0  0  0
    5.5231  -12.0775   23.5892 N   0  0  0  0  0  0  0  0  0  0  0  0
    6.3215  -10.9788   23.3404 C   0  0  0  0  0  0  0  0  0  0  0  0
   11.1127   -6.5980   20.9539 C   0  0  0  0  0  0  0  0  0  0  0  0
   13.6500   -1.5631   18.7285 H   0  0  0  0  0  0  0  0  0  0  0  0
   12.2862   -2.2152   19.6461 H   0  0  0  0  0  0  0  0  0  0  0  0
   12.4008   -2.4993   17.9044 H   0  0  0  0  0  0  0  0  0  0  0  0
   14.4085   -3.8684   18.1986 H   0  0  0  0  0  0  0  0  0  0  0  0
   14.1778   -3.3385   21.2029 H   0  0  0  0  0  0  0  0  0  0  0  0
   15.4455   -2.7690   20.1173 H   0  0  0  0  0  0  0  0  0  0  0  0
   15.2753   -4.4989   20.4474 H   0  0  0  0  0  0  0  0  0  0  0  0
   13.0076   -5.6693   21.4552 H   0  0  0  0  0  0  0  0  0  0  0  0
   12.0752   -3.5236   21.8969 H   0  0  0  0  0  0  0  0  0  0  0  0
   10.7812   -3.7329   20.7232 H   0  0  0  0  0  0  0  0  0  0  0  0
   11.1775   -5.1619   23.3865 H   0  0  0  0  0  0  0  0  0  0  0  0
    9.7292   -4.2858   22.8395 H   0  0  0  0  0  0  0  0  0  0  0  0
   10.4900   -7.6959   23.3331 H   0  0  0  0  0  0  0  0  0  0  0  0
    9.2377   -6.5685   23.8025 H   0  0  0  0  0  0  0  0  0  0  0  0
    7.5792   -7.7272   22.2442 H   0  0  0  0  0  0  0  0  0  0  0  0
    8.7911   -8.9995   22.0070 H   0  0  0  0  0  0  0  0  0  0  0  0
    8.8227   -9.3484   24.5491 H   0  0  0  0  0  0  0  0  0  0  0  0
    7.5555   -8.1372   24.7065 H   0  0  0  0  0  0  0  0  0  0  0  0
    6.8032   -9.8387   26.4555 H   0  0  0  0  0  0  0  0  0  0  0  0
    5.3822  -11.8079   26.9430 H   0  0  0  0  0  0  0  0  0  0  0  0
    4.6037  -13.2362   25.0354 H   0  0  0  0  0  0  0  0  0  0  0  0
    6.5559  -10.8394   22.2875 H   0  0  0  0  0  0  0  0  0  0  0  0
   10.6519   -6.8394   19.9905 H   0  0  0  0  0  0  0  0  0  0  0  0
   11.6318   -7.4960   21.3081 H   0  0  0  0  0  0  0  0  0  0  0  0
  1  2  1  0
  2  3  1  0
  2  4  1  0
  4  5  2  0
  4  6  2  0
  4  7  1  0
  7  8  1  0
  8  9  1  0
  9 10  1  0
 10 11  1  0
 11 12  1  0
 12 13  1  0
 13 14  1  0
 14 15  2  0
 15 16  1  0
 16 17  2  0
 17 18  1  0
 18 19  2  0
 10 20  1  0
 20  7  1  0
 19 14  1  0
  1 21  1  0
  1 22  1  0
  1 23  1  0
  2 24  1  0
  3 25  1  0
  3 26  1  0
  3 27  1  0
  7 28  1  0
  8 29  1  0
  8 30  1  0
  9 31  1  0
  9 32  1  0
 11 33  1  0
 11 34  1  0
 12 35  1  0
 12 36  1  0
 13 37  1  0
 13 38  1  0
 15 39  1  0
 16 40  1  0
 17 41  1  0
 19 42  1  0
 20 43  1  0
 20 44  1  0
M  END
>  <Energy>  (928) 
53.660242830538465

>  <compound_id>  (928) 
6111

>  <target_id>  (928) 
1

>  <reference_id>  (928) 
49

>  <inspiration_ids>  (928) 
[124, 49]

>  <energy_score>  (928) 
-8.193822130179683

>  <distance_score>  (928) 
14.412267214590752

>  <path>  (928) 
/opt/xchem-fragalysis-2/maxwin/BulkDock/SCRATCH/511018/C6111-P49/C6111-P49.minimised.mol

>  <scratch_subdir>  (928) 
/opt/xchem-fragalysis-2/maxwin/BulkDock/SCRATCH/511018/C6111-P49

>  <fragmenstein_runtime>  (928) 
19.273606538772583

>  <fragmenstein_outcome>  (928) 
too moved

>  <fragmenstein_mode>  (928) 
expansion

>  <fragmenstein_error>  (928) 


$$$$
C6112-P124
     RDKit          3D

 47 48  0  0  0  0  0  0  0  0999 V2000
   12.3799  -11.6345   17.6412 C   0  0  0  0  0  0  0  0  0  0  0  0
   11.4505  -10.7928   16.7454 C   0  0  0  0  0  0  0  0  0  0  0  0
   12.0078   -9.2113   16.0615 C   0  0  0  0  0  0  0  0  0  0  0  0
   12.1528   -7.1710   16.1725 C   0  0  0  0  0  0  0  0  0  0  0  0
   12.7200   -5.4522   16.5754 C   0  0  0  0  0  0  0  0  0  0  0  0
   12.5138   -4.0237   16.0462 C   0  0  0  0  0  0  0  0  0  0  0  0
   11.4533   -3.5050   15.3356 C   0  0  0  0  0  0  0  0  0  0  0  0
   11.5697   -2.2472   14.7500 C   0  0  0  0  0  0  0  0  0  0  0  0
   12.7452   -1.5353   14.8683 C   0  0  0  0  0  0  0  0  0  0  0  0
   13.7669   -1.9472   15.6285 N   0  0  0  0  0  0  0  0  0  0  0  0
   13.6176   -3.1570   16.2077 C   0  0  0  0  0  0  0  0  0  0  0  0
   10.0253  -11.1067   17.1333 N   0  0  0  0  0  0  0  0  0  0  0  0
    8.8988  -11.7193   16.3332 C   0  0  0  0  0  0  0  0  0  0  0  0
    8.8549  -12.0190   15.1998 O   0  0  0  0  0  0  0  0  0  0  0  0
    7.8202  -11.8249   17.4148 N   0  0  0  0  0  0  0  0  0  0  0  0
    6.3983  -12.2369   17.3232 C   0  0  0  0  0  0  0  0  0  0  0  0
    5.8041  -13.2960   18.3167 C   0  0  0  0  0  0  0  0  0  0  0  0
    5.4940  -12.7599   19.7128 C   0  0  0  0  0  0  0  0  0  0  0  0
    3.9798  -12.7255   19.8093 C   0  0  0  0  0  0  0  0  0  0  0  0
    3.5594  -13.8739   19.0204 N   0  0  0  0  0  0  0  0  0  0  0  0
    4.4266  -13.8423   17.8459 C   0  0  0  0  0  0  0  0  0  0  0  0
   12.3523  -11.2958   18.6820 H   0  0  0  0  0  0  0  0  0  0  0  0
   12.0540  -12.6820   17.6477 H   0  0  0  0  0  0  0  0  0  0  0  0
   13.4121  -11.6245   17.2753 H   0  0  0  0  0  0  0  0  0  0  0  0
   11.5065  -11.3658   15.8015 H   0  0  0  0  0  0  0  0  0  0  0  0
   11.0376   -9.4147   15.5528 H   0  0  0  0  0  0  0  0  0  0  0  0
   12.8304   -9.5434   15.4137 H   0  0  0  0  0  0  0  0  0  0  0  0
   11.2494   -6.7232   15.7556 H   0  0  0  0  0  0  0  0  0  0  0  0
   13.0201   -7.2745   15.5660 H   0  0  0  0  0  0  0  0  0  0  0  0
   12.7499   -5.2249   17.6439 H   0  0  0  0  0  0  0  0  0  0  0  0
   13.7116   -5.4836   16.1269 H   0  0  0  0  0  0  0  0  0  0  0  0
   10.5603   -4.0719   15.1425 H   0  0  0  0  0  0  0  0  0  0  0  0
   10.7614   -1.8239   14.1811 H   0  0  0  0  0  0  0  0  0  0  0  0
   12.8734   -0.5737   14.3792 H   0  0  0  0  0  0  0  0  0  0  0  0
   14.4877   -3.4693   16.7833 H   0  0  0  0  0  0  0  0  0  0  0  0
    9.7024  -10.9032   18.0576 H   0  0  0  0  0  0  0  0  0  0  0  0
    8.2089  -11.5579   18.2988 H   0  0  0  0  0  0  0  0  0  0  0  0
    6.2735  -12.6129   16.3009 H   0  0  0  0  0  0  0  0  0  0  0  0
    5.8179  -11.3096   17.3933 H   0  0  0  0  0  0  0  0  0  0  0  0
    6.5192  -14.1243   18.4007 H   0  0  0  0  0  0  0  0  0  0  0  0
    5.9408  -11.7798   19.9061 H   0  0  0  0  0  0  0  0  0  0  0  0
    5.9148  -13.4660   20.4303 H   0  0  0  0  0  0  0  0  0  0  0  0
    3.6033  -11.7976   19.3614 H   0  0  0  0  0  0  0  0  0  0  0  0
    3.6484  -12.7629   20.8431 H   0  0  0  0  0  0  0  0  0  0  0  0
    2.5787  -13.8206   18.7590 H   0  0  0  0  0  0  0  0  0  0  0  0
    3.9904  -13.1871   17.0822 H   0  0  0  0  0  0  0  0  0  0  0  0
    4.5287  -14.8417   17.4116 H   0  0  0  0  0  0  0  0  0  0  0  0
  1  2  1  0
  2  3  1  0
  3  4  1  0
  4  5  1  0
  5  6  1  0
  6  7  2  0
  7  8  1  0
  8  9  2  0
  9 10  1  0
 10 11  2  0
  2 12  1  0
 12 13  1  0
 13 14  2  0
 13 15  1  0
 15 16  1  0
 16 17  1  0
 17 18  1  0
 18 19  1  0
 19 20  1  0
 20 21  1  0
 11  6  1  0
 21 17  1  0
  1 22  1  0
  1 23  1  0
  1 24  1  0
  2 25  1  0
  3 26  1  0
  3 27  1  0
  4 28  1  0
  4 29  1  0
  5 30  1  0
  5 31  1  0
  7 32  1  0
  8 33  1  0
  9 34  1  0
 11 35  1  0
 12 36  1  0
 15 37  1  0
 16 38  1  0
 16 39  1  0
 17 40  1  0
 18 41  1  0
 18 42  1  0
 19 43  1  0
 19 44  1  0
 20 45  1  0
 21 46  1  0
 21 47  1  0
M  END
>  <Energy>  (929) 
224.81146443157917

>  <compound_id>  (929) 
6112

>  <target_id>  (929) 
1

>  <reference_id>  (929) 
124

>  <inspiration_ids>  (929) 
[124, 49]

>  <energy_score>  (929) 
248.06770596299071

>  <distance_score>  (929) 
14.623670421629939

>  <path>  (929) 
/opt/xchem-fragalysis-2/maxwin/BulkDock/SCRATCH/511018/C6112-P124/C6112-P124.minimised.mol

>  <scratch_subdir>  (929) 
/opt/xchem-fragalysis-2/maxwin/BulkDock/SCRATCH/511018/C6112-P124

>  <fragmenstein_runtime>  (929) 
37.090707302093506

>  <fragmenstein_outcome>  (929) 
too moved

>  <fragmenstein_mode>  (929) 
expansion

>  <fragmenstein_error>  (929) 


$$$$
C6112-P49
     RDKit          3D

 47 48  0  0  0  0  0  0  0  0999 V2000
    0.6992   -4.9109   23.1077 C   0  0  0  0  0  0  0  0  0  0  0  0
    1.2877   -6.3247   23.1797 C   0  0  0  0  0  0  0  0  0  0  0  0
    2.5124   -6.4668   22.1556 C   0  0  0  0  0  0  0  0  0  0  0  0
    3.7199   -5.4958   22.4570 C   0  0  0  0  0  0  0  0  0  0  0  0
    4.9789   -5.6786   21.5846 C   0  0  0  0  0  0  0  0  0  0  0  0
    6.1981   -4.9823   22.1513 C   0  0  0  0  0  0  0  0  0  0  0  0
    6.2830   -3.5953   22.2660 C   0  0  0  0  0  0  0  0  0  0  0  0
    7.4580   -3.0041   22.7333 C   0  0  0  0  0  0  0  0  0  0  0  0
    8.5361   -3.8188   23.0285 C   0  0  0  0  0  0  0  0  0  0  0  0
    8.4925   -5.1630   22.9350 N   0  0  0  0  0  0  0  0  0  0  0  0
    7.3144   -5.7083   22.5581 C   0  0  0  0  0  0  0  0  0  0  0  0
    0.1206   -7.2877   23.1692 N   0  0  0  0  0  0  0  0  0  0  0  0
   -0.8516   -7.6394   22.0775 C   0  0  0  0  0  0  0  0  0  0  0  0
   -0.8782   -7.3037   20.9537 O   0  0  0  0  0  0  0  0  0  0  0  0
   -1.8883   -8.5002   22.8750 N   0  0  0  0  0  0  0  0  0  0  0  0
   -3.2194   -9.0378   22.4681 C   0  0  0  0  0  0  0  0  0  0  0  0
   -4.1803  -10.1057   23.1500 C   0  0  0  0  0  0  0  0  0  0  0  0
   -3.8723  -11.6044   23.1600 C   0  0  0  0  0  0  0  0  0  0  0  0
   -4.9982  -12.1798   24.0189 C   0  0  0  0  0  0  0  0  0  0  0  0
   -5.2163  -11.1714   25.0566 N   0  0  0  0  0  0  0  0  0  0  0  0
   -4.8437   -9.8519   24.5093 C   0  0  0  0  0  0  0  0  0  0  0  0
    1.4402   -4.1476   23.3596 H   0  0  0  0  0  0  0  0  0  0  0  0
   -0.1317   -4.7982   23.8137 H   0  0  0  0  0  0  0  0  0  0  0  0
    0.3111   -4.6992   22.1055 H   0  0  0  0  0  0  0  0  0  0  0  0
    1.7126   -6.4577   24.1829 H   0  0  0  0  0  0  0  0  0  0  0  0
    2.1502   -6.2957   21.1352 H   0  0  0  0  0  0  0  0  0  0  0  0
    2.8689   -7.5026   22.2020 H   0  0  0  0  0  0  0  0  0  0  0  0
    3.3782   -4.4596   22.3568 H   0  0  0  0  0  0  0  0  0  0  0  0
    3.9924   -5.6349   23.5114 H   0  0  0  0  0  0  0  0  0  0  0  0
    4.7849   -5.3024   20.5730 H   0  0  0  0  0  0  0  0  0  0  0  0
    5.1847   -6.7513   21.4841 H   0  0  0  0  0  0  0  0  0  0  0  0
    5.4395   -2.9663   21.9921 H   0  0  0  0  0  0  0  0  0  0  0  0
    7.5382   -1.9277   22.8397 H   0  0  0  0  0  0  0  0  0  0  0  0
    9.4820   -3.4024   23.3630 H   0  0  0  0  0  0  0  0  0  0  0  0
    7.3065   -6.7963   22.5602 H   0  0  0  0  0  0  0  0  0  0  0  0
   -0.1963   -7.6821   24.0358 H   0  0  0  0  0  0  0  0  0  0  0  0
   -1.6158   -8.5401   23.8402 H   0  0  0  0  0  0  0  0  0  0  0  0
   -3.0550   -9.3835   21.4389 H   0  0  0  0  0  0  0  0  0  0  0  0
   -3.8223   -8.1257   22.3620 H   0  0  0  0  0  0  0  0  0  0  0  0
   -5.0376  -10.0563   22.4525 H   0  0  0  0  0  0  0  0  0  0  0  0
   -3.8858  -12.0276   22.1501 H   0  0  0  0  0  0  0  0  0  0  0  0
   -2.9032  -11.8276   23.5966 H   0  0  0  0  0  0  0  0  0  0  0  0
   -5.9073  -12.3006   23.4187 H   0  0  0  0  0  0  0  0  0  0  0  0
   -4.7316  -13.1493   24.4482 H   0  0  0  0  0  0  0  0  0  0  0  0
   -6.1818  -11.1777   25.3820 H   0  0  0  0  0  0  0  0  0  0  0  0
   -5.7382   -9.2309   24.3827 H   0  0  0  0  0  0  0  0  0  0  0  0
   -4.1845   -9.3282   25.2049 H   0  0  0  0  0  0  0  0  0  0  0  0
  1  2  1  0
  2  3  1  0
  3  4  1  0
  4  5  1  0
  5  6  1  0
  6  7  2  0
  7  8  1  0
  8  9  2  0
  9 10  1  0
 10 11  2  0
  2 12  1  0
 12 13  1  0
 13 14  2  0
 13 15  1  0
 15 16  1  0
 16 17  1  0
 17 18  1  0
 18 19  1  0
 19 20  1  0
 20 21  1  0
 11  6  1  0
 21 17  1  0
  1 22  1  0
  1 23  1  0
  1 24  1  0
  2 25  1  0
  3 26  1  0
  3 27  1  0
  4 28  1  0
  4 29  1  0
  5 30  1  0
  5 31  1  0
  7 32  1  0
  8 33  1  0
  9 34  1  0
 11 35  1  0
 12 36  1  0
 15 37  1  0
 16 38  1  0
 16 39  1  0
 17 40  1  0
 18 41  1  0
 18 42  1  0
 19 43  1  0
 19 44  1  0
 20 45  1  0
 21 46  1  0
 21 47  1  0
M  END
>  <Energy>  (930) 
-8.8719601843284863

>  <compound_id>  (930) 
6112

>  <target_id>  (930) 
1

>  <reference_id>  (930) 
49

>  <inspiration_ids>  (930) 
[124, 49]

>  <energy_score>  (930) 
14.384281347086016

>  <distance_score>  (930) 
15.118748860898922

>  <path>  (930) 
/opt/xchem-fragalysis-2/maxwin/BulkDock/SCRATCH/511018/C6112-P49/C6112-P49.minimised.mol

>  <scratch_subdir>  (930) 
/opt/xchem-fragalysis-2/maxwin/BulkDock/SCRATCH/511018/C6112-P49

>  <fragmenstein_runtime>  (930) 
31.61151933670044

>  <fragmenstein_outcome>  (930) 
too moved

>  <fragmenstein_mode>  (930) 
expansion

>  <fragmenstein_error>  (930) 


$$$$
C6146-P186
     RDKit          3D

 40 42  0  0  0  0  0  0  0  0999 V2000
   -1.5172    3.5833   36.1885 C   0  0  0  0  0  0  0  0  0  0  0  0
   -2.8481    3.2944   35.5820 C   0  0  0  0  0  0  0  0  0  0  0  0
   -3.7152    4.3011   35.4551 N   0  0  0  0  0  0  0  0  0  0  0  0
   -5.1286    3.7197   34.8255 S   0  0  0  0  0  0  0  0  0  0  0  0
   -4.5950    2.1064   34.6505 C   0  0  0  0  0  0  0  0  0  0  0  0
   -3.2882    2.0087   35.0948 C   0  0  0  0  0  0  0  0  0  0  0  0
   -2.5142    0.7685   35.1531 C   0  0  0  0  0  0  0  0  0  0  0  0
   -1.9292    0.5189   36.1281 O   0  0  0  0  0  0  0  0  0  0  0  0
   -2.6750   -0.0377   33.8529 N   0  0  0  0  0  0  0  0  0  0  0  0
   -2.0699   -1.2841   33.4399 C   0  0  0  0  0  0  0  0  0  0  0  0
   -2.6531   -1.8493   32.1409 C   0  0  0  0  0  0  0  0  0  0  0  0
   -0.5291   -1.2004   33.3798 C   0  0  0  0  0  0  0  0  0  0  0  0
   -0.0135   -2.5408   33.2866 N   0  0  0  0  0  0  0  0  0  0  0  0
    1.0881   -3.1263   32.3901 C   0  0  0  0  0  0  0  0  0  0  0  0
    1.8060   -2.6043   31.6403 O   0  0  0  0  0  0  0  0  0  0  0  0
    1.0437   -4.6021   32.5515 C   0  0  0  0  0  0  0  0  0  0  0  0
    1.0492   -5.1421   33.8393 C   0  0  0  0  0  0  0  0  0  0  0  0
    0.4356   -6.3668   34.0752 C   0  0  0  0  0  0  0  0  0  0  0  0
   -0.1725   -7.0321   33.0002 C   0  0  0  0  0  0  0  0  0  0  0  0
   -0.9690   -8.1329   33.1094 N   0  0  0  0  0  0  0  0  0  0  0  0
   -1.3381   -8.5159   31.9164 C   0  0  0  0  0  0  0  0  0  0  0  0
   -0.7410   -7.6410   30.5966 S   0  0  0  0  0  0  0  0  0  0  0  0
   -0.0201   -6.5460   31.7001 C   0  0  0  0  0  0  0  0  0  0  0  0
    0.6013   -5.3267   31.4375 C   0  0  0  0  0  0  0  0  0  0  0  0
   -1.4531    3.1431   37.1886 H   0  0  0  0  0  0  0  0  0  0  0  0
   -1.3422    4.6605   36.2807 H   0  0  0  0  0  0  0  0  0  0  0  0
   -0.7140    3.1680   35.5713 H   0  0  0  0  0  0  0  0  0  0  0  0
   -5.2526    1.3394   34.2639 H   0  0  0  0  0  0  0  0  0  0  0  0
   -3.1877    0.5169   33.1707 H   0  0  0  0  0  0  0  0  0  0  0  0
   -2.3277   -1.9846   34.2456 H   0  0  0  0  0  0  0  0  0  0  0  0
   -2.2400   -2.8323   31.8964 H   0  0  0  0  0  0  0  0  0  0  0  0
   -3.7385   -1.9595   32.2339 H   0  0  0  0  0  0  0  0  0  0  0  0
   -2.4535   -1.1725   31.3036 H   0  0  0  0  0  0  0  0  0  0  0  0
   -0.1806   -0.6124   32.5250 H   0  0  0  0  0  0  0  0  0  0  0  0
   -0.1197   -0.7600   34.2940 H   0  0  0  0  0  0  0  0  0  0  0  0
   -0.5041   -3.2951   33.7576 H   0  0  0  0  0  0  0  0  0  0  0  0
    1.4090   -4.5529   34.6816 H   0  0  0  0  0  0  0  0  0  0  0  0
    0.3357   -6.7600   35.0827 H   0  0  0  0  0  0  0  0  0  0  0  0
   -1.9670   -9.3669   31.7653 H   0  0  0  0  0  0  0  0  0  0  0  0
    0.6017   -4.8892   30.4423 H   0  0  0  0  0  0  0  0  0  0  0  0
  1  2  1  0
  2  3  2  0
  3  4  1  0
  4  5  1  0
  5  6  2  0
  6  7  1  0
  7  8  2  0
  7  9  1  0
  9 10  1  0
 10 11  1  0
 10 12  1  0
 12 13  1  0
 13 14  1  0
 14 15  2  0
 14 16  1  0
 16 17  2  0
 17 18  1  0
 18 19  2  0
 19 20  1  0
 20 21  2  0
 21 22  1  0
 22 23  1  0
 23 24  2  0
  6  2  1  0
 24 16  1  0
 23 19  1  0
  1 25  1  0
  1 26  1  0
  1 27  1  0
  5 28  1  0
  9 29  1  0
 10 30  1  0
 11 31  1  0
 11 32  1  0
 11 33  1  0
 12 34  1  0
 12 35  1  0
 13 36  1  0
 17 37  1  0
 18 38  1  0
 21 39  1  0
 24 40  1  0
M  END
>  <Energy>  (931) 
44.968777907770935

>  <compound_id>  (931) 
6146

>  <target_id>  (931) 
1

>  <reference_id>  (931) 
186

>  <inspiration_ids>  (931) 
[186, 68]

>  <energy_score>  (931) 
-44.86283808042333

>  <distance_score>  (931) 
2.2902893093692276

>  <path>  (931) 
/opt/xchem-fragalysis-2/maxwin/BulkDock/SCRATCH/511018/C6146-P186/C6146-P186.minimised.mol

>  <scratch_subdir>  (931) 
/opt/xchem-fragalysis-2/maxwin/BulkDock/SCRATCH/511018/C6146-P186

>  <fragmenstein_runtime>  (931) 
6.067008018493652

>  <fragmenstein_outcome>  (931) 
too moved

>  <fragmenstein_mode>  (931) 
expansion

>  <fragmenstein_error>  (931) 


$$$$
C6146-P68
     RDKit          3D

 40 42  0  0  0  0  0  0  0  0999 V2000
    0.3803    2.3574   29.0643 C   0  0  0  0  0  0  0  0  0  0  0  0
   -0.2868    2.1260   27.7508 C   0  0  0  0  0  0  0  0  0  0  0  0
   -0.1530    3.0940   26.8396 N   0  0  0  0  0  0  0  0  0  0  0  0
   -1.0522    2.7161   25.5066 S   0  0  0  0  0  0  0  0  0  0  0  0
   -1.6225    1.2282   26.0986 C   0  0  0  0  0  0  0  0  0  0  0  0
   -1.0830    0.9842   27.3534 C   0  0  0  0  0  0  0  0  0  0  0  0
   -1.4189   -0.2462   28.0878 C   0  0  0  0  0  0  0  0  0  0  0  0
   -2.4823   -0.6968   27.9629 O   0  0  0  0  0  0  0  0  0  0  0  0
   -0.2470   -0.6945   28.9689 N   0  0  0  0  0  0  0  0  0  0  0  0
   -0.1009   -1.8548   29.8183 C   0  0  0  0  0  0  0  0  0  0  0  0
   -1.3535   -2.0798   30.6930 C   0  0  0  0  0  0  0  0  0  0  0  0
    0.2359   -3.1120   28.9945 C   0  0  0  0  0  0  0  0  0  0  0  0
    0.3759   -4.2291   29.8891 N   0  0  0  0  0  0  0  0  0  0  0  0
    1.6325   -4.9507   30.3939 C   0  0  0  0  0  0  0  0  0  0  0  0
    2.7494   -4.8073   30.1083 O   0  0  0  0  0  0  0  0  0  0  0  0
    1.2118   -5.8778   31.4697 C   0  0  0  0  0  0  0  0  0  0  0  0
    1.5793   -5.5502   32.7734 C   0  0  0  0  0  0  0  0  0  0  0  0
    0.9180   -6.1402   33.8498 C   0  0  0  0  0  0  0  0  0  0  0  0
   -0.1312   -7.0407   33.6021 C   0  0  0  0  0  0  0  0  0  0  0  0
   -0.9412   -7.5947   34.5631 N   0  0  0  0  0  0  0  0  0  0  0  0
   -1.8164   -8.3746   33.9806 C   0  0  0  0  0  0  0  0  0  0  0  0
   -1.7184   -8.5106   32.2729 S   0  0  0  0  0  0  0  0  0  0  0  0
   -0.4261   -7.3967   32.2842 C   0  0  0  0  0  0  0  0  0  0  0  0
    0.2485   -6.8506   31.1928 C   0  0  0  0  0  0  0  0  0  0  0  0
    0.4036    3.4246   29.3114 H   0  0  0  0  0  0  0  0  0  0  0  0
    1.4124    1.9938   29.0343 H   0  0  0  0  0  0  0  0  0  0  0  0
   -0.1454    1.8499   29.8773 H   0  0  0  0  0  0  0  0  0  0  0  0
   -2.2846    0.5925   25.5239 H   0  0  0  0  0  0  0  0  0  0  0  0
    0.5615   -0.1226   28.7707 H   0  0  0  0  0  0  0  0  0  0  0  0
    0.7385   -1.6311   30.4884 H   0  0  0  0  0  0  0  0  0  0  0  0
   -1.6436   -1.1473   31.1900 H   0  0  0  0  0  0  0  0  0  0  0  0
   -2.2045   -2.4125   30.0900 H   0  0  0  0  0  0  0  0  0  0  0  0
   -1.1732   -2.8253   31.4737 H   0  0  0  0  0  0  0  0  0  0  0  0
   -0.5634   -3.3458   28.2855 H   0  0  0  0  0  0  0  0  0  0  0  0
    1.1723   -2.9771   28.4441 H   0  0  0  0  0  0  0  0  0  0  0  0
   -0.4459   -4.6615   30.2904 H   0  0  0  0  0  0  0  0  0  0  0  0
    2.3217   -4.7754   32.9570 H   0  0  0  0  0  0  0  0  0  0  0  0
    1.1535   -5.8567   34.8717 H   0  0  0  0  0  0  0  0  0  0  0  0
   -2.5707   -8.9042   34.5481 H   0  0  0  0  0  0  0  0  0  0  0  0
   -0.0418   -7.0966   30.1808 H   0  0  0  0  0  0  0  0  0  0  0  0
  1  2  1  0
  2  3  2  0
  3  4  1  0
  4  5  1  0
  5  6  2  0
  6  7  1  0
  7  8  2  0
  7  9  1  0
  9 10  1  0
 10 11  1  0
 10 12  1  0
 12 13  1  0
 13 14  1  0
 14 15  2  0
 14 16  1  0
 16 17  2  0
 17 18  1  0
 18 19  2  0
 19 20  1  0
 20 21  2  0
 21 22  1  0
 22 23  1  0
 23 24  2  0
  6  2  1  0
 24 16  1  0
 23 19  1  0
  1 25  1  0
  1 26  1  0
  1 27  1  0
  5 28  1  0
  9 29  1  0
 10 30  1  0
 11 31  1  0
 11 32  1  0
 11 33  1  0
 12 34  1  0
 12 35  1  0
 13 36  1  0
 17 37  1  0
 18 38  1  0
 21 39  1  0
 24 40  1  0
M  END
>  <Energy>  (932) 
39.912184244698189

>  <compound_id>  (932) 
6146

>  <target_id>  (932) 
1

>  <reference_id>  (932) 
68

>  <inspiration_ids>  (932) 
[186, 68]

>  <energy_score>  (932) 
-49.91943174349535

>  <distance_score>  (932) 
1.7108375039423145

>  <path>  (932) 
/opt/xchem-fragalysis-2/maxwin/BulkDock/SCRATCH/511018/C6146-P68/C6146-P68.minimised.mol

>  <scratch_subdir>  (932) 
/opt/xchem-fragalysis-2/maxwin/BulkDock/SCRATCH/511018/C6146-P68

>  <fragmenstein_runtime>  (932) 
4.387434005737305

>  <fragmenstein_outcome>  (932) 
too moved

>  <fragmenstein_mode>  (932) 
expansion

>  <fragmenstein_error>  (932) 


$$$$
C6155-P82
     RDKit          3D

 43 45  0  0  0  0  0  0  0  0999 V2000
   -2.9312  -12.3621   25.0748 C   0  0  0  0  0  0  0  0  0  0  0  0
   -4.1149  -11.6293   24.4950 C   0  0  0  0  0  0  0  0  0  0  0  0
   -3.6489  -12.1178   26.4416 C   0  0  0  0  0  0  0  0  0  0  0  0
   -3.7528  -10.2331   22.9235 C   0  0  0  0  0  0  0  0  0  0  0  0
   -4.4135  -10.3323   21.9076 O   0  0  0  0  0  0  0  0  0  0  0  0
   -2.6434   -9.3372   23.2009 N   0  0  0  0  0  0  0  0  0  0  0  0
   -1.8652   -8.2520   22.2549 C   0  0  0  0  0  0  0  0  0  0  0  0
   -0.2757   -8.1995   22.2732 C   0  0  0  0  0  0  0  0  0  0  0  0
    0.6910   -7.3394   21.4034 C   0  0  0  0  0  0  0  0  0  0  0  0
    0.7884   -6.0227   21.2514 N   0  0  0  0  0  0  0  0  0  0  0  0
    2.0800   -5.7643   20.7908 C   0  0  0  0  0  0  0  0  0  0  0  0
    2.7505   -4.5448   20.5774 C   0  0  0  0  0  0  0  0  0  0  0  0
    4.1077   -4.5606   20.2167 C   0  0  0  0  0  0  0  0  0  0  0  0
    4.7836   -5.7667   20.0156 C   0  0  0  0  0  0  0  0  0  0  0  0
    4.1258   -6.9906   20.1841 C   0  0  0  0  0  0  0  0  0  0  0  0
    2.7804   -6.9444   20.5880 C   0  0  0  0  0  0  0  0  0  0  0  0
    1.8666   -7.9251   20.9155 N   0  0  0  0  0  0  0  0  0  0  0  0
   -5.8327  -12.3466   24.4906 C   0  0  0  0  0  0  0  0  0  0  0  0
   -6.0352  -13.4821   23.6385 C   0  0  0  0  0  0  0  0  0  0  0  0
   -7.0986  -14.9032   24.2101 C   0  0  0  0  0  0  0  0  0  0  0  0
   -7.6507  -14.8297   25.5737 C   0  0  0  0  0  0  0  0  0  0  0  0
   -7.1401  -13.6704   26.4039 C   0  0  0  0  0  0  0  0  0  0  0  0
   -6.5297  -12.4077   25.8265 N   0  0  0  0  0  0  0  0  0  0  0  0
   -2.2682  -11.5810   25.3178 H   0  0  0  0  0  0  0  0  0  0  0  0
   -2.3230  -13.2696   25.3483 H   0  0  0  0  0  0  0  0  0  0  0  0
   -3.4079  -12.8813   24.3435 H   0  0  0  0  0  0  0  0  0  0  0  0
   -4.4843  -12.1095   27.1794 H   0  0  0  0  0  0  0  0  0  0  0  0
   -3.0125  -11.4102   26.8978 H   0  0  0  0  0  0  0  0  0  0  0  0
   -3.1846  -13.0745   26.7104 H   0  0  0  0  0  0  0  0  0  0  0  0
   -2.3848   -9.4443   24.1427 H   0  0  0  0  0  0  0  0  0  0  0  0
   -2.2040   -8.4897   21.2405 H   0  0  0  0  0  0  0  0  0  0  0  0
   -2.2650   -7.2657   22.5048 H   0  0  0  0  0  0  0  0  0  0  0  0
    0.0121   -7.9685   23.3036 H   0  0  0  0  0  0  0  0  0  0  0  0
   -0.0229   -9.2384   22.0439 H   0  0  0  0  0  0  0  0  0  0  0  0
    2.2240   -3.6120   20.7454 H   0  0  0  0  0  0  0  0  0  0  0  0
    4.6269   -3.6128   20.1088 H   0  0  0  0  0  0  0  0  0  0  0  0
    5.8316   -5.7591   19.7333 H   0  0  0  0  0  0  0  0  0  0  0  0
    4.6368   -7.9362   20.0416 H   0  0  0  0  0  0  0  0  0  0  0  0
    2.0646   -8.9190   20.9755 H   0  0  0  0  0  0  0  0  0  0  0  0
   -6.2954  -12.9530   22.6988 H   0  0  0  0  0  0  0  0  0  0  0  0
   -7.7499  -15.5195   23.5687 H   0  0  0  0  0  0  0  0  0  0  0  0
   -8.4067  -15.5154   25.9443 H   0  0  0  0  0  0  0  0  0  0  0  0
   -7.4609  -13.5643   27.4373 H   0  0  0  0  0  0  0  0  0  0  0  0
  1  2  1  0
  2  3  1  0
  2  4  1  0
  4  5  2  0
  4  6  1  0
  6  7  1  0
  7  8  1  0
  8  9  1  0
  9 10  2  0
 10 11  1  0
 11 12  2  0
 12 13  1  0
 13 14  2  0
 14 15  1  0
 15 16  2  0
 16 17  1  0
  2 18  1  0
 18 19  2  0
 19 20  1  0
 20 21  2  0
 21 22  1  0
 22 23  2  0
 17  9  1  0
 23 18  1  0
 16 11  1  0
  1 24  1  0
  1 25  1  0
  1 26  1  0
  3 27  1  0
  3 28  1  0
  3 29  1  0
  6 30  1  0
  7 31  1  0
  7 32  1  0
  8 33  1  0
  8 34  1  0
 12 35  1  0
 13 36  1  0
 14 37  1  0
 15 38  1  0
 17 39  1  0
 19 40  1  0
 20 41  1  0
 21 42  1  0
 22 43  1  0
M  END
>  <Energy>  (933) 
619.91974893273607

>  <compound_id>  (933) 
6155

>  <target_id>  (933) 
1

>  <reference_id>  (933) 
82

>  <inspiration_ids>  (933) 
[82, 103]

>  <energy_score>  (933) 
550.1997534590862

>  <distance_score>  (933) 
14.075625863522763

>  <path>  (933) 
/opt/xchem-fragalysis-2/maxwin/BulkDock/SCRATCH/511018/C6155-P82/C6155-P82.minimised.mol

>  <scratch_subdir>  (933) 
/opt/xchem-fragalysis-2/maxwin/BulkDock/SCRATCH/511018/C6155-P82

>  <fragmenstein_runtime>  (933) 
26.377498388290405

>  <fragmenstein_outcome>  (933) 
too moved

>  <fragmenstein_mode>  (933) 
expansion

>  <fragmenstein_error>  (933) 


$$$$
C6155-P103
     RDKit          3D

 43 45  0  0  0  0  0  0  0  0999 V2000
    8.0430  -15.1282   24.5118 C   0  0  0  0  0  0  0  0  0  0  0  0
    6.7428  -14.4276   24.9683 C   0  0  0  0  0  0  0  0  0  0  0  0
    7.0504  -13.6538   26.2753 C   0  0  0  0  0  0  0  0  0  0  0  0
    6.3110  -13.3708   23.8190 C   0  0  0  0  0  0  0  0  0  0  0  0
    5.2599  -13.5497   23.2659 O   0  0  0  0  0  0  0  0  0  0  0  0
    7.3162  -12.2870   23.6556 N   0  0  0  0  0  0  0  0  0  0  0  0
    7.2854  -11.0372   22.8290 C   0  0  0  0  0  0  0  0  0  0  0  0
    8.6433  -10.5778   22.1879 C   0  0  0  0  0  0  0  0  0  0  0  0
    8.8079   -9.0976   21.9105 C   0  0  0  0  0  0  0  0  0  0  0  0
    7.9106   -8.2244   21.4924 N   0  0  0  0  0  0  0  0  0  0  0  0
    8.5136   -6.9883   21.5854 C   0  0  0  0  0  0  0  0  0  0  0  0
    7.9683   -5.7093   21.4117 C   0  0  0  0  0  0  0  0  0  0  0  0
    8.7777   -4.6047   21.6920 C   0  0  0  0  0  0  0  0  0  0  0  0
   10.1114   -4.7716   22.0824 C   0  0  0  0  0  0  0  0  0  0  0  0
   10.6908   -6.0359   22.1921 C   0  0  0  0  0  0  0  0  0  0  0  0
    9.8428   -7.1167   21.9643 C   0  0  0  0  0  0  0  0  0  0  0  0
   10.0272   -8.4691   22.0813 N   0  0  0  0  0  0  0  0  0  0  0  0
    5.6889  -15.5864   25.3190 C   0  0  0  0  0  0  0  0  0  0  0  0
    5.3558  -16.5807   24.3901 C   0  0  0  0  0  0  0  0  0  0  0  0
    4.7470  -17.7769   24.8148 C   0  0  0  0  0  0  0  0  0  0  0  0
    4.4713  -17.9652   26.1591 C   0  0  0  0  0  0  0  0  0  0  0  0
    4.7567  -16.9282   27.0196 C   0  0  0  0  0  0  0  0  0  0  0  0
    5.3440  -15.7647   26.6316 N   0  0  0  0  0  0  0  0  0  0  0  0
    8.8843  -14.4316   24.4353 H   0  0  0  0  0  0  0  0  0  0  0  0
    8.3406  -15.9173   25.2128 H   0  0  0  0  0  0  0  0  0  0  0  0
    7.9215  -15.5863   23.5235 H   0  0  0  0  0  0  0  0  0  0  0  0
    6.1594  -13.1420   26.6499 H   0  0  0  0  0  0  0  0  0  0  0  0
    7.8257  -12.8922   26.1521 H   0  0  0  0  0  0  0  0  0  0  0  0
    7.4080  -14.3244   27.0663 H   0  0  0  0  0  0  0  0  0  0  0  0
    8.1242  -12.4953   24.2249 H   0  0  0  0  0  0  0  0  0  0  0  0
    6.5202  -11.1659   22.0560 H   0  0  0  0  0  0  0  0  0  0  0  0
    6.9286  -10.2589   23.5128 H   0  0  0  0  0  0  0  0  0  0  0  0
    8.7917  -11.1310   21.2528 H   0  0  0  0  0  0  0  0  0  0  0  0
    9.4519  -10.8909   22.8616 H   0  0  0  0  0  0  0  0  0  0  0  0
    6.9247   -5.5935   21.1409 H   0  0  0  0  0  0  0  0  0  0  0  0
    8.3551   -3.6075   21.6220 H   0  0  0  0  0  0  0  0  0  0  0  0
   10.7279   -3.9036   22.3023 H   0  0  0  0  0  0  0  0  0  0  0  0
   11.7254   -6.1566   22.4924 H   0  0  0  0  0  0  0  0  0  0  0  0
   10.8797   -8.9178   22.3828 H   0  0  0  0  0  0  0  0  0  0  0  0
    5.6192  -16.4577   23.3441 H   0  0  0  0  0  0  0  0  0  0  0  0
    4.5184  -18.5571   24.0935 H   0  0  0  0  0  0  0  0  0  0  0  0
    4.0807  -18.9009   26.5209 H   0  0  0  0  0  0  0  0  0  0  0  0
    4.5713  -17.0108   28.0840 H   0  0  0  0  0  0  0  0  0  0  0  0
  1  2  1  0
  2  3  1  0
  2  4  1  0
  4  5  2  0
  4  6  1  0
  6  7  1  0
  7  8  1  0
  8  9  1  0
  9 10  2  0
 10 11  1  0
 11 12  2  0
 12 13  1  0
 13 14  2  0
 14 15  1  0
 15 16  2  0
 16 17  1  0
  2 18  1  0
 18 19  2  0
 19 20  1  0
 20 21  2  0
 21 22  1  0
 22 23  2  0
 17  9  1  0
 23 18  1  0
 16 11  1  0
  1 24  1  0
  1 25  1  0
  1 26  1  0
  3 27  1  0
  3 28  1  0
  3 29  1  0
  6 30  1  0
  7 31  1  0
  7 32  1  0
  8 33  1  0
  8 34  1  0
 12 35  1  0
 13 36  1  0
 14 37  1  0
 15 38  1  0
 17 39  1  0
 19 40  1  0
 20 41  1  0
 21 42  1  0
 22 43  1  0
M  END
>  <Energy>  (934) 
69.279956310055553

>  <compound_id>  (934) 
6155

>  <target_id>  (934) 
1

>  <reference_id>  (934) 
103

>  <inspiration_ids>  (934) 
[82, 103]

>  <energy_score>  (934) 
-0.4400391635911092

>  <distance_score>  (934) 
14.931525164908598

>  <path>  (934) 
/opt/xchem-fragalysis-2/maxwin/BulkDock/SCRATCH/511018/C6155-P103/C6155-P103.minimised.mol

>  <scratch_subdir>  (934) 
/opt/xchem-fragalysis-2/maxwin/BulkDock/SCRATCH/511018/C6155-P103

>  <fragmenstein_runtime>  (934) 
31.96373677253723

>  <fragmenstein_outcome>  (934) 
too moved

>  <fragmenstein_mode>  (934) 
expansion

>  <fragmenstein_error>  (934) 


$$$$
C6156-P82
     RDKit          3D

 46 48  0  0  0  0  0  0  0  0999 V2000
   -2.6455  -15.8163   24.3540 C   0  0  0  0  0  0  0  0  0  0  0  0
   -3.6183  -15.9216   22.6080 C   0  0  0  0  0  0  0  0  0  0  0  0
   -4.5287  -15.0457   23.5036 C   0  0  0  0  0  0  0  0  0  0  0  0
   -2.0616  -14.6498   21.7724 C   0  0  0  0  0  0  0  0  0  0  0  0
   -0.8981  -14.9917   22.1009 O   0  0  0  0  0  0  0  0  0  0  0  0
   -2.4831  -13.0538   20.8000 N   0  0  0  0  0  0  0  0  0  0  0  0
   -1.5394  -11.7844   20.3166 C   0  0  0  0  0  0  0  0  0  0  0  0
   -2.0897  -10.0712   20.2763 C   0  0  0  0  0  0  0  0  0  0  0  0
   -1.0095   -8.7898   20.2391 C   0  0  0  0  0  0  0  0  0  0  0  0
   -0.9552   -7.8312   19.3003 N   0  0  0  0  0  0  0  0  0  0  0  0
    0.3096   -7.2375   19.3806 C   0  0  0  0  0  0  0  0  0  0  0  0
    0.9551   -6.3046   18.5343 C   0  0  0  0  0  0  0  0  0  0  0  0
    2.2881   -5.9274   18.7902 C   0  0  0  0  0  0  0  0  0  0  0  0
    2.9730   -6.4575   19.8839 C   0  0  0  0  0  0  0  0  0  0  0  0
    2.3440   -7.3673   20.7502 C   0  0  0  0  0  0  0  0  0  0  0  0
    1.0108   -7.7311   20.4686 C   0  0  0  0  0  0  0  0  0  0  0  0
    0.1281   -8.6393   21.0587 N   0  0  0  0  0  0  0  0  0  0  0  0
   -5.0600  -16.9837   21.6653 C   0  0  0  0  0  0  0  0  0  0  0  0
   -5.5319  -17.5569   20.3369 C   0  0  0  0  0  0  0  0  0  0  0  0
   -6.6953  -18.4068   20.1085 C   0  0  0  0  0  0  0  0  0  0  0  0
   -7.0891  -18.8358   18.7304 C   0  0  0  0  0  0  0  0  0  0  0  0
   -8.4360  -18.9665   18.5637 F   0  0  0  0  0  0  0  0  0  0  0  0
   -6.5495  -20.0329   18.3720 F   0  0  0  0  0  0  0  0  0  0  0  0
   -6.6904  -17.9497   17.7714 F   0  0  0  0  0  0  0  0  0  0  0  0
   -7.4056  -18.9702   21.1455 C   0  0  0  0  0  0  0  0  0  0  0  0
   -6.8891  -18.7374   22.3633 C   0  0  0  0  0  0  0  0  0  0  0  0
   -5.8672  -17.8562   22.6094 N   0  0  0  0  0  0  0  0  0  0  0  0
   -1.6491  -15.4601   24.1179 H   0  0  0  0  0  0  0  0  0  0  0  0
   -2.6199  -16.6983   25.0006 H   0  0  0  0  0  0  0  0  0  0  0  0
   -2.6732  -15.0710   25.1267 H   0  0  0  0  0  0  0  0  0  0  0  0
   -4.7313  -15.5612   24.3983 H   0  0  0  0  0  0  0  0  0  0  0  0
   -3.7220  -14.4442   23.6215 H   0  0  0  0  0  0  0  0  0  0  0  0
   -5.2711  -14.2525   23.3745 H   0  0  0  0  0  0  0  0  0  0  0  0
   -3.4959  -12.9543   20.7314 H   0  0  0  0  0  0  0  0  0  0  0  0
   -1.0815  -11.4479   21.2185 H   0  0  0  0  0  0  0  0  0  0  0  0
   -1.3054  -11.8929   19.2703 H   0  0  0  0  0  0  0  0  0  0  0  0
   -2.7180   -9.9185   21.1623 H   0  0  0  0  0  0  0  0  0  0  0  0
   -2.7290   -9.9788   19.3901 H   0  0  0  0  0  0  0  0  0  0  0  0
    0.4195   -5.9154   17.6758 H   0  0  0  0  0  0  0  0  0  0  0  0
    2.7804   -5.2246   18.1241 H   0  0  0  0  0  0  0  0  0  0  0  0
    4.0030   -6.1686   20.0707 H   0  0  0  0  0  0  0  0  0  0  0  0
    2.8662   -7.8055   21.5942 H   0  0  0  0  0  0  0  0  0  0  0  0
    0.4137   -9.2868   21.7820 H   0  0  0  0  0  0  0  0  0  0  0  0
   -4.8814  -17.5341   19.4460 H   0  0  0  0  0  0  0  0  0  0  0  0
   -8.2213  -19.6658   20.9984 H   0  0  0  0  0  0  0  0  0  0  0  0
   -7.2167  -19.3201   23.2106 H   0  0  0  0  0  0  0  0  0  0  0  0
  1  2  1  0
  2  3  1  0
  2  4  1  0
  4  5  2  0
  4  6  1  0
  6  7  1  0
  7  8  1  0
  8  9  1  0
  9 10  2  0
 10 11  1  0
 11 12  2  0
 12 13  1  0
 13 14  2  0
 14 15  1  0
 15 16  2  0
 16 17  1  0
  2 18  1  0
 18 19  2  0
 19 20  1  0
 20 21  1  0
 21 22  1  0
 21 23  1  0
 21 24  1  0
 20 25  2  0
 25 26  1  0
 26 27  2  0
 17  9  1  0
 27 18  1  0
 16 11  1  0
  1 28  1  0
  1 29  1  0
  1 30  1  0
  3 31  1  0
  3 32  1  0
  3 33  1  0
  6 34  1  0
  7 35  1  0
  7 36  1  0
  8 37  1  0
  8 38  1  0
 12 39  1  0
 13 40  1  0
 14 41  1  0
 15 42  1  0
 17 43  1  0
 19 44  1  0
 25 45  1  0
 26 46  1  0
M  END
>  <Energy>  (935) 
628.87444705248117

>  <compound_id>  (935) 
6156

>  <target_id>  (935) 
1

>  <reference_id>  (935) 
82

>  <inspiration_ids>  (935) 
[82, 103]

>  <energy_score>  (935) 
527.1632653985338

>  <distance_score>  (935) 
14.957283581613478

>  <path>  (935) 
/opt/xchem-fragalysis-2/maxwin/BulkDock/SCRATCH/511018/C6156-P82/C6156-P82.minimised.mol

>  <scratch_subdir>  (935) 
/opt/xchem-fragalysis-2/maxwin/BulkDock/SCRATCH/511018/C6156-P82

>  <fragmenstein_runtime>  (935) 
29.535059452056885

>  <fragmenstein_outcome>  (935) 
too moved

>  <fragmenstein_mode>  (935) 
expansion

>  <fragmenstein_error>  (935) 


$$$$
C6156-P103
     RDKit          3D

 46 48  0  0  0  0  0  0  0  0999 V2000
   -0.6430  -17.0593   19.1717 C   0  0  0  0  0  0  0  0  0  0  0  0
    0.0663  -18.2538   18.5304 C   0  0  0  0  0  0  0  0  0  0  0  0
   -0.4799  -18.4565   17.1037 C   0  0  0  0  0  0  0  0  0  0  0  0
    1.7191  -17.9572   18.2960 C   0  0  0  0  0  0  0  0  0  0  0  0
    2.4362  -18.9222   18.3895 O   0  0  0  0  0  0  0  0  0  0  0  0
    2.0417  -16.5291   17.9035 N   0  0  0  0  0  0  0  0  0  0  0  0
    3.3690  -15.8861   17.4014 C   0  0  0  0  0  0  0  0  0  0  0  0
    3.6681  -14.3528   17.7826 C   0  0  0  0  0  0  0  0  0  0  0  0
    4.8061  -13.5114   17.1489 C   0  0  0  0  0  0  0  0  0  0  0  0
    4.6663  -12.6050   16.1876 N   0  0  0  0  0  0  0  0  0  0  0  0
    5.8950  -11.9837   16.0246 C   0  0  0  0  0  0  0  0  0  0  0  0
    6.3122  -11.0227   15.0871 C   0  0  0  0  0  0  0  0  0  0  0  0
    7.6541  -10.6218   15.0850 C   0  0  0  0  0  0  0  0  0  0  0  0
    8.5513  -11.1124   16.0378 C   0  0  0  0  0  0  0  0  0  0  0  0
    8.1386  -12.0254   17.0165 C   0  0  0  0  0  0  0  0  0  0  0  0
    6.8060  -12.4611   16.9568 C   0  0  0  0  0  0  0  0  0  0  0  0
    6.0878  -13.3986   17.6762 N   0  0  0  0  0  0  0  0  0  0  0  0
   -0.3813  -19.4969   19.4906 C   0  0  0  0  0  0  0  0  0  0  0  0
   -1.6088  -20.2070   19.3384 C   0  0  0  0  0  0  0  0  0  0  0  0
   -2.0667  -21.1615   20.3066 C   0  0  0  0  0  0  0  0  0  0  0  0
   -3.4141  -21.8561   20.1934 C   0  0  0  0  0  0  0  0  0  0  0  0
   -3.8610  -22.3917   21.3609 F   0  0  0  0  0  0  0  0  0  0  0  0
   -4.3938  -21.0367   19.7259 F   0  0  0  0  0  0  0  0  0  0  0  0
   -3.3589  -22.8964   19.3122 F   0  0  0  0  0  0  0  0  0  0  0  0
   -1.2639  -21.4005   21.4171 C   0  0  0  0  0  0  0  0  0  0  0  0
   -0.1027  -20.6603   21.5214 C   0  0  0  0  0  0  0  0  0  0  0  0
    0.3247  -19.7293   20.6129 N   0  0  0  0  0  0  0  0  0  0  0  0
   -0.1441  -16.7902   20.1060 H   0  0  0  0  0  0  0  0  0  0  0  0
   -1.6913  -17.2771   19.4107 H   0  0  0  0  0  0  0  0  0  0  0  0
   -0.6642  -16.1901   18.5099 H   0  0  0  0  0  0  0  0  0  0  0  0
   -1.5742  -18.4462   17.0698 H   0  0  0  0  0  0  0  0  0  0  0  0
   -0.1349  -19.4099   16.6876 H   0  0  0  0  0  0  0  0  0  0  0  0
   -0.1342  -17.6644   16.4296 H   0  0  0  0  0  0  0  0  0  0  0  0
    1.1859  -15.9983   17.8488 H   0  0  0  0  0  0  0  0  0  0  0  0
    3.3315  -15.9763   16.3105 H   0  0  0  0  0  0  0  0  0  0  0  0
    4.1821  -16.5250   17.7607 H   0  0  0  0  0  0  0  0  0  0  0  0
    2.7417  -13.8170   17.5444 H   0  0  0  0  0  0  0  0  0  0  0  0
    3.8071  -14.3270   18.8694 H   0  0  0  0  0  0  0  0  0  0  0  0
    5.6126  -10.6407   14.3524 H   0  0  0  0  0  0  0  0  0  0  0  0
    7.9921   -9.8995   14.3482 H   0  0  0  0  0  0  0  0  0  0  0  0
    9.5833  -10.7670   16.0225 H   0  0  0  0  0  0  0  0  0  0  0  0
    8.8367  -12.4135   17.7499 H   0  0  0  0  0  0  0  0  0  0  0  0
    6.4498  -13.9403   18.4469 H   0  0  0  0  0  0  0  0  0  0  0  0
   -2.2541  -20.0001   18.4881 H   0  0  0  0  0  0  0  0  0  0  0  0
   -1.5449  -22.1015   22.1946 H   0  0  0  0  0  0  0  0  0  0  0  0
    0.5588  -20.7750   22.3771 H   0  0  0  0  0  0  0  0  0  0  0  0
  1  2  1  0
  2  3  1  0
  2  4  1  0
  4  5  2  0
  4  6  1  0
  6  7  1  0
  7  8  1  0
  8  9  1  0
  9 10  2  0
 10 11  1  0
 11 12  2  0
 12 13  1  0
 13 14  2  0
 14 15  1  0
 15 16  2  0
 16 17  1  0
  2 18  1  0
 18 19  2  0
 19 20  1  0
 20 21  1  0
 21 22  1  0
 21 23  1  0
 21 24  1  0
 20 25  2  0
 25 26  1  0
 26 27  2  0
 17  9  1  0
 27 18  1  0
 16 11  1  0
  1 28  1  0
  1 29  1  0
  1 30  1  0
  3 31  1  0
  3 32  1  0
  3 33  1  0
  6 34  1  0
  7 35  1  0
  7 36  1  0
  8 37  1  0
  8 38  1  0
 12 39  1  0
 13 40  1  0
 14 41  1  0
 15 42  1  0
 17 43  1  0
 19 44  1  0
 25 45  1  0
 26 46  1  0
M  END
>  <Energy>  (936) 
105.46110701871112

>  <compound_id>  (936) 
6156

>  <target_id>  (936) 
1

>  <reference_id>  (936) 
103

>  <inspiration_ids>  (936) 
[82, 103]

>  <energy_score>  (936) 
3.7499253647520163

>  <distance_score>  (936) 
15.239576524454545

>  <path>  (936) 
/opt/xchem-fragalysis-2/maxwin/BulkDock/SCRATCH/511018/C6156-P103/C6156-P103.minimised.mol

>  <scratch_subdir>  (936) 
/opt/xchem-fragalysis-2/maxwin/BulkDock/SCRATCH/511018/C6156-P103

>  <fragmenstein_runtime>  (936) 
35.066240072250366

>  <fragmenstein_outcome>  (936) 
too moved

>  <fragmenstein_mode>  (936) 
expansion

>  <fragmenstein_error>  (936) 


$$$$
C6157-P82
     RDKit          3D

 46 48  0  0  0  0  0  0  0  0999 V2000
   -0.6853   -8.4104   30.7324 C   0  0  0  0  0  0  0  0  0  0  0  0
   -0.4759   -9.9050   29.7617 C   0  0  0  0  0  0  0  0  0  0  0  0
   -0.5625   -8.9967   28.4611 C   0  0  0  0  0  0  0  0  0  0  0  0
    1.1645  -10.4058   28.8325 C   0  0  0  0  0  0  0  0  0  0  0  0
    0.9051  -10.7908   27.7307 O   0  0  0  0  0  0  0  0  0  0  0  0
    2.5079  -10.1654   29.4648 N   0  0  0  0  0  0  0  0  0  0  0  0
    3.9692  -10.2203   28.8561 C   0  0  0  0  0  0  0  0  0  0  0  0
    5.0523   -8.9077   28.9315 C   0  0  0  0  0  0  0  0  0  0  0  0
    5.9010   -8.4110   27.6630 C   0  0  0  0  0  0  0  0  0  0  0  0
    5.6063   -7.3511   26.9072 N   0  0  0  0  0  0  0  0  0  0  0  0
    6.5867   -7.2226   25.9317 C   0  0  0  0  0  0  0  0  0  0  0  0
    6.7240   -6.2986   24.8711 C   0  0  0  0  0  0  0  0  0  0  0  0
    7.8289   -6.3923   24.0084 C   0  0  0  0  0  0  0  0  0  0  0  0
    8.7858   -7.3887   24.2007 C   0  0  0  0  0  0  0  0  0  0  0  0
    8.6648   -8.3172   25.2512 C   0  0  0  0  0  0  0  0  0  0  0  0
    7.5460   -8.2088   26.0988 C   0  0  0  0  0  0  0  0  0  0  0  0
    7.1043   -8.9360   27.2015 N   0  0  0  0  0  0  0  0  0  0  0  0
   -2.0240  -10.9003   30.3113 C   0  0  0  0  0  0  0  0  0  0  0  0
   -2.7064  -11.8056   29.4861 C   0  0  0  0  0  0  0  0  0  0  0  0
   -4.0764  -12.2753   29.3316 C   0  0  0  0  0  0  0  0  0  0  0  0
   -5.0992  -12.3578   30.2017 C   0  0  0  0  0  0  0  0  0  0  0  0
   -4.6830  -11.5055   31.1568 C   0  0  0  0  0  0  0  0  0  0  0  0
   -6.1125  -10.8331   31.7798 C   0  0  0  0  0  0  0  0  0  0  0  0
   -6.7160   -9.9487   30.9223 F   0  0  0  0  0  0  0  0  0  0  0  0
   -5.9621  -10.1330   32.9418 F   0  0  0  0  0  0  0  0  0  0  0  0
   -7.0901  -11.7930   31.9917 F   0  0  0  0  0  0  0  0  0  0  0  0
   -3.1334  -10.6345   31.2232 N   0  0  0  0  0  0  0  0  0  0  0  0
   -1.1032   -7.5346   30.2264 H   0  0  0  0  0  0  0  0  0  0  0  0
    0.2232   -8.0438   31.2122 H   0  0  0  0  0  0  0  0  0  0  0  0
   -1.3960   -8.6181   31.5479 H   0  0  0  0  0  0  0  0  0  0  0  0
   -0.8254   -9.6679   27.6631 H   0  0  0  0  0  0  0  0  0  0  0  0
   -1.1376   -8.0713   28.5196 H   0  0  0  0  0  0  0  0  0  0  0  0
    0.3422   -8.5326   28.0628 H   0  0  0  0  0  0  0  0  0  0  0  0
    2.3758   -9.9232   30.4327 H   0  0  0  0  0  0  0  0  0  0  0  0
    4.5447  -11.1339   28.8510 H   0  0  0  0  0  0  0  0  0  0  0  0
    3.6661  -10.0366   27.8595 H   0  0  0  0  0  0  0  0  0  0  0  0
    5.7669   -9.1382   29.7309 H   0  0  0  0  0  0  0  0  0  0  0  0
    4.4756   -8.0353   29.2588 H   0  0  0  0  0  0  0  0  0  0  0  0
    5.9740   -5.5270   24.7360 H   0  0  0  0  0  0  0  0  0  0  0  0
    7.9397   -5.6802   23.1953 H   0  0  0  0  0  0  0  0  0  0  0  0
    9.6424   -7.4492   23.5322 H   0  0  0  0  0  0  0  0  0  0  0  0
    9.4111   -9.0919   25.3962 H   0  0  0  0  0  0  0  0  0  0  0  0
    7.5810   -9.7316   27.5996 H   0  0  0  0  0  0  0  0  0  0  0  0
   -2.5177  -12.7757   29.9553 H   0  0  0  0  0  0  0  0  0  0  0  0
   -4.3250  -12.1511   28.2735 H   0  0  0  0  0  0  0  0  0  0  0  0
   -6.1157  -12.6246   29.9718 H   0  0  0  0  0  0  0  0  0  0  0  0
  1  2  1  0
  2  3  1  0
  2  4  1  0
  4  5  2  0
  4  6  1  0
  6  7  1  0
  7  8  1  0
  8  9  1  0
  9 10  2  0
 10 11  1  0
 11 12  2  0
 12 13  1  0
 13 14  2  0
 14 15  1  0
 15 16  2  0
 16 17  1  0
  2 18  1  0
 18 19  2  0
 19 20  1  0
 20 21  2  0
 21 22  1  0
 22 23  1  0
 23 24  1  0
 23 25  1  0
 23 26  1  0
 22 27  2  0
 17  9  1  0
 27 18  1  0
 16 11  1  0
  1 28  1  0
  1 29  1  0
  1 30  1  0
  3 31  1  0
  3 32  1  0
  3 33  1  0
  6 34  1  0
  7 35  1  0
  7 36  1  0
  8 37  1  0
  8 38  1  0
 12 39  1  0
 13 40  1  0
 14 41  1  0
 15 42  1  0
 17 43  1  0
 19 44  1  0
 20 45  1  0
 21 46  1  0
M  END
>  <Energy>  (937) 
500.94752120015124

>  <compound_id>  (937) 
6157

>  <target_id>  (937) 
1

>  <reference_id>  (937) 
82

>  <inspiration_ids>  (937) 
[82, 103]

>  <energy_score>  (937) 
354.3398420393946

>  <distance_score>  (937) 
14.813787394551406

>  <path>  (937) 
/opt/xchem-fragalysis-2/maxwin/BulkDock/SCRATCH/511018/C6157-P82/C6157-P82.minimised.mol

>  <scratch_subdir>  (937) 
/opt/xchem-fragalysis-2/maxwin/BulkDock/SCRATCH/511018/C6157-P82

>  <fragmenstein_runtime>  (937) 
32.822763442993164

>  <fragmenstein_outcome>  (937) 
too moved

>  <fragmenstein_mode>  (937) 
expansion

>  <fragmenstein_error>  (937) 


$$$$
C6157-P103
     RDKit          3D

 46 48  0  0  0  0  0  0  0  0999 V2000
    1.1876  -11.9524   26.8014 C   0  0  0  0  0  0  0  0  0  0  0  0
    1.2480  -13.5300   25.7936 C   0  0  0  0  0  0  0  0  0  0  0  0
    0.1883  -14.2188   24.3429 C   0  0  0  0  0  0  0  0  0  0  0  0
    2.0772  -12.6533   24.3298 C   0  0  0  0  0  0  0  0  0  0  0  0
    1.6147  -11.6784   24.2057 O   0  0  0  0  0  0  0  0  0  0  0  0
    3.0625  -13.0576   23.3420 N   0  0  0  0  0  0  0  0  0  0  0  0
    3.6317  -12.2852   21.7994 C   0  0  0  0  0  0  0  0  0  0  0  0
    4.1477  -10.6673   21.5809 C   0  0  0  0  0  0  0  0  0  0  0  0
    5.4747   -9.9608   21.2227 C   0  0  0  0  0  0  0  0  0  0  0  0
    5.4756   -8.6959   20.7902 N   0  0  0  0  0  0  0  0  0  0  0  0
    6.7449   -8.2015   20.9456 C   0  0  0  0  0  0  0  0  0  0  0  0
    7.2253   -6.8830   20.8294 C   0  0  0  0  0  0  0  0  0  0  0  0
    8.5664   -6.6258   21.1460 C   0  0  0  0  0  0  0  0  0  0  0  0
    9.4170   -7.6711   21.5132 C   0  0  0  0  0  0  0  0  0  0  0  0
    8.9597   -8.9954   21.5956 C   0  0  0  0  0  0  0  0  0  0  0  0
    7.6007   -9.2179   21.3388 C   0  0  0  0  0  0  0  0  0  0  0  0
    6.7827  -10.3355   21.4601 N   0  0  0  0  0  0  0  0  0  0  0  0
    1.0305  -14.8511   27.0662 C   0  0  0  0  0  0  0  0  0  0  0  0
   -0.7365  -14.8387   27.8522 C   0  0  0  0  0  0  0  0  0  0  0  0
   -1.9708  -15.5478   27.7247 C   0  0  0  0  0  0  0  0  0  0  0  0
   -1.7467  -16.9129   27.5236 C   0  0  0  0  0  0  0  0  0  0  0  0
   -0.1807  -17.5397   27.5236 C   0  0  0  0  0  0  0  0  0  0  0  0
   -0.8157  -18.5281   26.5220 C   0  0  0  0  0  0  0  0  0  0  0  0
   -1.8132  -18.1292   25.6854 F   0  0  0  0  0  0  0  0  0  0  0  0
   -1.3396  -19.6602   27.0737 F   0  0  0  0  0  0  0  0  0  0  0  0
    0.1974  -18.8074   25.7499 F   0  0  0  0  0  0  0  0  0  0  0  0
    1.3530  -16.5743   27.4512 N   0  0  0  0  0  0  0  0  0  0  0  0
    0.6044  -11.2326   27.4335 H   0  0  0  0  0  0  0  0  0  0  0  0
    1.9229  -11.7488   27.6168 H   0  0  0  0  0  0  0  0  0  0  0  0
    1.4850  -11.3345   26.0814 H   0  0  0  0  0  0  0  0  0  0  0  0
    0.9733  -14.5082   23.6461 H   0  0  0  0  0  0  0  0  0  0  0  0
   -0.8430  -14.5860   24.4996 H   0  0  0  0  0  0  0  0  0  0  0  0
   -0.2115  -13.7532   23.4203 H   0  0  0  0  0  0  0  0  0  0  0  0
    3.3201  -14.0086   23.5564 H   0  0  0  0  0  0  0  0  0  0  0  0
    2.6522  -11.8995   21.5572 H   0  0  0  0  0  0  0  0  0  0  0  0
    3.8590  -12.9923   20.9871 H   0  0  0  0  0  0  0  0  0  0  0  0
    3.5203  -10.3517   20.7272 H   0  0  0  0  0  0  0  0  0  0  0  0
    3.7632  -10.0918   22.4128 H   0  0  0  0  0  0  0  0  0  0  0  0
    6.5407   -6.0867   20.5603 H   0  0  0  0  0  0  0  0  0  0  0  0
    8.9527   -5.6090   21.1176 H   0  0  0  0  0  0  0  0  0  0  0  0
   10.4542   -7.4514   21.7623 H   0  0  0  0  0  0  0  0  0  0  0  0
    9.6200   -9.7967   21.9110 H   0  0  0  0  0  0  0  0  0  0  0  0
    7.0846  -11.2308   21.8127 H   0  0  0  0  0  0  0  0  0  0  0  0
   -0.6012  -15.2681   28.9439 H   0  0  0  0  0  0  0  0  0  0  0  0
   -2.8097  -15.2964   28.3216 H   0  0  0  0  0  0  0  0  0  0  0  0
   -2.6438  -17.5139   27.3548 H   0  0  0  0  0  0  0  0  0  0  0  0
  1  2  1  0
  2  3  1  0
  2  4  1  0
  4  5  2  0
  4  6  1  0
  6  7  1  0
  7  8  1  0
  8  9  1  0
  9 10  2  0
 10 11  1  0
 11 12  2  0
 12 13  1  0
 13 14  2  0
 14 15  1  0
 15 16  2  0
 16 17  1  0
  2 18  1  0
 18 19  2  0
 19 20  1  0
 20 21  2  0
 21 22  1  0
 22 23  1  0
 23 24  1  0
 23 25  1  0
 23 26  1  0
 22 27  2  0
 17  9  1  0
 27 18  1  0
 16 11  1  0
  1 28  1  0
  1 29  1  0
  1 30  1  0
  3 31  1  0
  3 32  1  0
  3 33  1  0
  6 34  1  0
  7 35  1  0
  7 36  1  0
  8 37  1  0
  8 38  1  0
 12 39  1  0
 13 40  1  0
 14 41  1  0
 15 42  1  0
 17 43  1  0
 19 44  1  0
 20 45  1  0
 21 46  1  0
M  END
>  <Energy>  (938) 
913.96809582216429

>  <compound_id>  (938) 
6157

>  <target_id>  (938) 
1

>  <reference_id>  (938) 
103

>  <inspiration_ids>  (938) 
[82, 103]

>  <energy_score>  (938) 
767.360416661408

>  <distance_score>  (938) 
13.315028251609638

>  <path>  (938) 
/opt/xchem-fragalysis-2/maxwin/BulkDock/SCRATCH/511018/C6157-P103/C6157-P103.minimised.mol

>  <scratch_subdir>  (938) 
/opt/xchem-fragalysis-2/maxwin/BulkDock/SCRATCH/511018/C6157-P103

>  <fragmenstein_runtime>  (938) 
28.042232275009155

>  <fragmenstein_outcome>  (938) 
too moved

>  <fragmenstein_mode>  (938) 
expansion

>  <fragmenstein_error>  (938) 


$$$$
C6158-P82
     RDKit          3D

 37 40  0  0  0  0  0  0  0  0999 V2000
    2.2279   -5.8250   22.0382 C   0  0  0  0  0  0  0  0  0  0  0  0
    2.2597   -6.7243   20.8936 N   0  0  0  0  0  0  0  0  0  0  0  0
    3.2377   -6.4081   19.8180 C   0  0  0  0  0  0  0  0  0  0  0  0
    4.6705   -6.0353   20.2288 C   0  0  0  0  0  0  0  0  0  0  0  0
    5.1616   -4.8416   20.5379 N   0  0  0  0  0  0  0  0  0  0  0  0
    6.4712   -5.0511   20.9123 C   0  0  0  0  0  0  0  0  0  0  0  0
    7.4311   -4.1547   21.4091 C   0  0  0  0  0  0  0  0  0  0  0  0
    8.7162   -4.6318   21.6984 C   0  0  0  0  0  0  0  0  0  0  0  0
    9.0410   -5.9743   21.5155 C   0  0  0  0  0  0  0  0  0  0  0  0
    8.0872   -6.8892   21.0640 C   0  0  0  0  0  0  0  0  0  0  0  0
    6.8179   -6.3863   20.7602 C   0  0  0  0  0  0  0  0  0  0  0  0
    5.6625   -6.9875   20.3236 N   0  0  0  0  0  0  0  0  0  0  0  0
    1.3582   -7.8121   20.8467 C   0  0  0  0  0  0  0  0  0  0  0  0
    1.1081   -8.6655   19.8587 N   0  0  0  0  0  0  0  0  0  0  0  0
    0.3580   -9.8283   20.2713 N   0  0  0  0  0  0  0  0  0  0  0  0
    0.3590   -9.9628   21.5982 C   0  0  0  0  0  0  0  0  0  0  0  0
    0.6936  -11.4006   22.6349 C   0  0  0  0  0  0  0  0  0  0  0  0
   -0.2462  -12.4702   22.6094 C   0  0  0  0  0  0  0  0  0  0  0  0
   -0.1942  -13.9795   23.0094 C   0  0  0  0  0  0  0  0  0  0  0  0
    0.8093  -14.1219   23.8843 C   0  0  0  0  0  0  0  0  0  0  0  0
    1.9924  -13.0141   24.1314 C   0  0  0  0  0  0  0  0  0  0  0  0
    1.9850  -11.8828   23.3216 N   0  0  0  0  0  0  0  0  0  0  0  0
    0.1663   -8.2161   22.1378 S   0  0  0  0  0  0  0  0  0  0  0  0
    1.2044   -5.5285   22.2917 H   0  0  0  0  0  0  0  0  0  0  0  0
    2.7648   -4.8918   21.8393 H   0  0  0  0  0  0  0  0  0  0  0  0
    2.6912   -6.3004   22.9088 H   0  0  0  0  0  0  0  0  0  0  0  0
    2.8355   -5.5665   19.2400 H   0  0  0  0  0  0  0  0  0  0  0  0
    3.2999   -7.2543   19.1217 H   0  0  0  0  0  0  0  0  0  0  0  0
    7.1682   -3.1159   21.5722 H   0  0  0  0  0  0  0  0  0  0  0  0
    9.4751   -3.9598   22.0899 H   0  0  0  0  0  0  0  0  0  0  0  0
   10.0463   -6.3152   21.7569 H   0  0  0  0  0  0  0  0  0  0  0  0
    8.3260   -7.9432   20.9629 H   0  0  0  0  0  0  0  0  0  0  0  0
    5.5227   -7.9776   20.1746 H   0  0  0  0  0  0  0  0  0  0  0  0
   -1.1043  -11.9424   21.8342 H   0  0  0  0  0  0  0  0  0  0  0  0
   -0.9185  -14.7339   22.7384 H   0  0  0  0  0  0  0  0  0  0  0  0
    0.3711  -14.3819   24.7531 H   0  0  0  0  0  0  0  0  0  0  0  0
    1.9855  -12.9136   25.1948 H   0  0  0  0  0  0  0  0  0  0  0  0
  1  2  1  0
  2  3  1  0
  3  4  1  0
  4  5  2  0
  5  6  1  0
  6  7  2  0
  7  8  1  0
  8  9  2  0
  9 10  1  0
 10 11  2  0
 11 12  1  0
  2 13  1  0
 13 14  2  0
 14 15  1  0
 15 16  2  0
 16 17  1  0
 17 18  2  0
 18 19  1  0
 19 20  2  0
 20 21  1  0
 21 22  2  0
 16 23  1  0
 12  4  1  0
 23 13  1  0
 11  6  1  0
 22 17  1  0
  1 24  1  0
  1 25  1  0
  1 26  1  0
  3 27  1  0
  3 28  1  0
  7 29  1  0
  8 30  1  0
  9 31  1  0
 10 32  1  0
 12 33  1  0
 18 34  1  0
 19 35  1  0
 20 36  1  0
 21 37  1  0
M  END
>  <Energy>  (939) 
234.15018021074414

>  <compound_id>  (939) 
6158

>  <target_id>  (939) 
1

>  <reference_id>  (939) 
82

>  <inspiration_ids>  (939) 
[82, 103]

>  <energy_score>  (939) 
107.60791590694248

>  <distance_score>  (939) 
14.553218705944966

>  <path>  (939) 
/opt/xchem-fragalysis-2/maxwin/BulkDock/SCRATCH/511018/C6158-P82/C6158-P82.minimised.mol

>  <scratch_subdir>  (939) 
/opt/xchem-fragalysis-2/maxwin/BulkDock/SCRATCH/511018/C6158-P82

>  <fragmenstein_runtime>  (939) 
13.559179306030273

>  <fragmenstein_outcome>  (939) 
too moved

>  <fragmenstein_mode>  (939) 
expansion

>  <fragmenstein_error>  (939) 


$$$$
C6158-P103
     RDKit          3D

 37 40  0  0  0  0  0  0  0  0999 V2000
    9.3416  -12.3571   20.2079 C   0  0  0  0  0  0  0  0  0  0  0  0
    7.9035  -12.1174   20.1336 N   0  0  0  0  0  0  0  0  0  0  0  0
    7.5101  -10.7959   19.5513 C   0  0  0  0  0  0  0  0  0  0  0  0
    7.9008   -9.4824   20.2637 C   0  0  0  0  0  0  0  0  0  0  0  0
    9.0877   -9.0799   20.7004 N   0  0  0  0  0  0  0  0  0  0  0  0
    8.9350   -7.7698   21.1155 C   0  0  0  0  0  0  0  0  0  0  0  0
    9.8739   -6.8619   21.6316 C   0  0  0  0  0  0  0  0  0  0  0  0
    9.4932   -5.5293   21.8300 C   0  0  0  0  0  0  0  0  0  0  0  0
    8.1875   -5.1158   21.5681 C   0  0  0  0  0  0  0  0  0  0  0  0
    7.2208   -6.0173   21.1064 C   0  0  0  0  0  0  0  0  0  0  0  0
    7.6373   -7.3345   20.8878 C   0  0  0  0  0  0  0  0  0  0  0  0
    6.9862   -8.4531   20.4203 N   0  0  0  0  0  0  0  0  0  0  0  0
    7.0505  -13.2536   20.0478 C   0  0  0  0  0  0  0  0  0  0  0  0
    5.7732  -13.2661   19.6912 N   0  0  0  0  0  0  0  0  0  0  0  0
    5.0862  -14.4840   19.9371 N   0  0  0  0  0  0  0  0  0  0  0  0
    5.8173  -15.4205   20.5292 C   0  0  0  0  0  0  0  0  0  0  0  0
    5.2891  -16.6622   21.2867 C   0  0  0  0  0  0  0  0  0  0  0  0
    5.4581  -16.8383   22.6705 C   0  0  0  0  0  0  0  0  0  0  0  0
    4.9302  -17.9645   23.3354 C   0  0  0  0  0  0  0  0  0  0  0  0
    4.2752  -18.9423   22.6079 C   0  0  0  0  0  0  0  0  0  0  0  0
    4.1169  -18.7125   21.2527 C   0  0  0  0  0  0  0  0  0  0  0  0
    4.5567  -17.5847   20.5956 N   0  0  0  0  0  0  0  0  0  0  0  0
    7.5176  -14.9437   20.5038 S   0  0  0  0  0  0  0  0  0  0  0  0
    9.9170  -11.4282   20.2432 H   0  0  0  0  0  0  0  0  0  0  0  0
    9.5979  -12.9167   21.1138 H   0  0  0  0  0  0  0  0  0  0  0  0
    9.6868  -12.9154   19.3305 H   0  0  0  0  0  0  0  0  0  0  0  0
    6.4182  -10.7789   19.4378 H   0  0  0  0  0  0  0  0  0  0  0  0
    7.9207  -10.7429   18.5346 H   0  0  0  0  0  0  0  0  0  0  0  0
   10.8925   -7.1815   21.8242 H   0  0  0  0  0  0  0  0  0  0  0  0
   10.2306   -4.8131   22.1882 H   0  0  0  0  0  0  0  0  0  0  0  0
    7.9121   -4.0789   21.7470 H   0  0  0  0  0  0  0  0  0  0  0  0
    6.1983   -5.7017   20.9245 H   0  0  0  0  0  0  0  0  0  0  0  0
    6.0075   -8.5024   20.1717 H   0  0  0  0  0  0  0  0  0  0  0  0
    6.0065  -16.1063   23.2543 H   0  0  0  0  0  0  0  0  0  0  0  0
    5.0627  -18.0769   24.4079 H   0  0  0  0  0  0  0  0  0  0  0  0
    3.8635  -19.8285   23.0772 H   0  0  0  0  0  0  0  0  0  0  0  0
    3.5768  -19.4217   20.6295 H   0  0  0  0  0  0  0  0  0  0  0  0
  1  2  1  0
  2  3  1  0
  3  4  1  0
  4  5  2  0
  5  6  1  0
  6  7  2  0
  7  8  1  0
  8  9  2  0
  9 10  1  0
 10 11  2  0
 11 12  1  0
  2 13  1  0
 13 14  2  0
 14 15  1  0
 15 16  2  0
 16 17  1  0
 17 18  2  0
 18 19  1  0
 19 20  2  0
 20 21  1  0
 21 22  2  0
 16 23  1  0
 12  4  1  0
 23 13  1  0
 11  6  1  0
 22 17  1  0
  1 24  1  0
  1 25  1  0
  1 26  1  0
  3 27  1  0
  3 28  1  0
  7 29  1  0
  8 30  1  0
  9 31  1  0
 10 32  1  0
 12 33  1  0
 18 34  1  0
 19 35  1  0
 20 36  1  0
 21 37  1  0
M  END
>  <Energy>  (940) 
66.216229728713415

>  <compound_id>  (940) 
6158

>  <target_id>  (940) 
1

>  <reference_id>  (940) 
103

>  <inspiration_ids>  (940) 
[82, 103]

>  <energy_score>  (940) 
-60.32603457509151

>  <distance_score>  (940) 
15.570198222333019

>  <path>  (940) 
/opt/xchem-fragalysis-2/maxwin/BulkDock/SCRATCH/511018/C6158-P103/C6158-P103.minimised.mol

>  <scratch_subdir>  (940) 
/opt/xchem-fragalysis-2/maxwin/BulkDock/SCRATCH/511018/C6158-P103

>  <fragmenstein_runtime>  (940) 
21.929922103881836

>  <fragmenstein_outcome>  (940) 
too moved

>  <fragmenstein_mode>  (940) 
expansion

>  <fragmenstein_error>  (940) 


$$$$
C6159-P82
     RDKit          3D

 37 40  0  0  0  0  0  0  0  0999 V2000
   -4.2236  -20.1663   27.1918 C   0  0  0  0  0  0  0  0  0  0  0  0
   -2.8451  -19.9769   26.7678 C   0  0  0  0  0  0  0  0  0  0  0  0
   -2.0903  -18.4779   26.5016 C   0  0  0  0  0  0  0  0  0  0  0  0
   -2.6463  -17.1917   26.6588 C   0  0  0  0  0  0  0  0  0  0  0  0
   -2.5248  -15.8808   25.3304 C   0  0  0  0  0  0  0  0  0  0  0  0
   -2.7116  -15.6206   24.0745 N   0  0  0  0  0  0  0  0  0  0  0  0
   -1.3967  -15.0675   23.3287 N   0  0  0  0  0  0  0  0  0  0  0  0
   -0.5643  -14.1066   23.7833 C   0  0  0  0  0  0  0  0  0  0  0  0
    0.0319  -12.7223   22.7417 N   0  0  0  0  0  0  0  0  0  0  0  0
    0.0637  -10.8287   22.1975 C   0  0  0  0  0  0  0  0  0  0  0  0
    0.4682   -9.7282   20.8579 C   0  0  0  0  0  0  0  0  0  0  0  0
    1.6947   -8.7394   20.5343 C   0  0  0  0  0  0  0  0  0  0  0  0
    1.9499   -8.2008   19.3363 N   0  0  0  0  0  0  0  0  0  0  0  0
    3.2124   -7.6324   19.4001 C   0  0  0  0  0  0  0  0  0  0  0  0
    4.0166   -7.0712   18.3887 C   0  0  0  0  0  0  0  0  0  0  0  0
    5.3114   -6.6353   18.7075 C   0  0  0  0  0  0  0  0  0  0  0  0
    5.7848   -6.7061   20.0183 C   0  0  0  0  0  0  0  0  0  0  0  0
    4.9882   -7.2376   21.0436 C   0  0  0  0  0  0  0  0  0  0  0  0
    3.7113   -7.7055   20.6920 C   0  0  0  0  0  0  0  0  0  0  0  0
    2.7013   -8.3368   21.3954 N   0  0  0  0  0  0  0  0  0  0  0  0
   -1.9503  -14.2151   25.5187 S   0  0  0  0  0  0  0  0  0  0  0  0
   -3.8132  -17.3958   27.4870 N   0  0  0  0  0  0  0  0  0  0  0  0
   -4.7902  -18.8846   27.5921 C   0  0  0  0  0  0  0  0  0  0  0  0
   -4.7288  -21.1127   27.2714 H   0  0  0  0  0  0  0  0  0  0  0  0
   -2.2722  -20.8923   26.6263 H   0  0  0  0  0  0  0  0  0  0  0  0
   -1.0156  -18.3809   26.4691 H   0  0  0  0  0  0  0  0  0  0  0  0
   -0.8395  -12.3048   22.5793 H   0  0  0  0  0  0  0  0  0  0  0  0
   -0.2562  -10.1318   22.9305 H   0  0  0  0  0  0  0  0  0  0  0  0
   -0.9377  -10.8928   21.6897 H   0  0  0  0  0  0  0  0  0  0  0  0
    0.1276  -10.1807   19.9212 H   0  0  0  0  0  0  0  0  0  0  0  0
   -0.3134   -8.9611   21.0197 H   0  0  0  0  0  0  0  0  0  0  0  0
    3.6394   -7.0244   17.3729 H   0  0  0  0  0  0  0  0  0  0  0  0
    5.9400   -6.2478   17.9142 H   0  0  0  0  0  0  0  0  0  0  0  0
    6.7842   -6.3578   20.2594 H   0  0  0  0  0  0  0  0  0  0  0  0
    5.3543   -7.3095   22.0615 H   0  0  0  0  0  0  0  0  0  0  0  0
    2.7345   -8.6474   22.3499 H   0  0  0  0  0  0  0  0  0  0  0  0
   -5.8007  -18.7026   27.9580 H   0  0  0  0  0  0  0  0  0  0  0  0
  1  2  2  0
  2  3  1  0
  3  4  2  0
  4  5  1  0
  5  6  2  0
  6  7  1  0
  7  8  2  0
  8  9  1  0
  9 10  1  0
 10 11  1  0
 11 12  1  0
 12 13  2  0
 13 14  1  0
 14 15  2  0
 15 16  1  0
 16 17  2  0
 17 18  1  0
 18 19  2  0
 19 20  1  0
  8 21  1  0
  4 22  1  0
 22 23  2  0
 23  1  1  0
 21  5  1  0
 20 12  1  0
 19 14  1  0
  1 24  1  0
  2 25  1  0
  3 26  1  0
  9 27  1  0
 10 28  1  0
 10 29  1  0
 11 30  1  0
 11 31  1  0
 15 32  1  0
 16 33  1  0
 17 34  1  0
 18 35  1  0
 20 36  1  0
 23 37  1  0
M  END
>  <Energy>  (941) 
657.53330326034984

>  <compound_id>  (941) 
6159

>  <target_id>  (941) 
1

>  <reference_id>  (941) 
82

>  <inspiration_ids>  (941) 
[82, 103]

>  <energy_score>  (941) 
561.9852335420164

>  <distance_score>  (941) 
13.066731064204854

>  <path>  (941) 
/opt/xchem-fragalysis-2/maxwin/BulkDock/SCRATCH/511018/C6159-P82/C6159-P82.minimised.mol

>  <scratch_subdir>  (941) 
/opt/xchem-fragalysis-2/maxwin/BulkDock/SCRATCH/511018/C6159-P82

>  <fragmenstein_runtime>  (941) 
17.443135738372803

>  <fragmenstein_outcome>  (941) 
too moved

>  <fragmenstein_mode>  (941) 
expansion

>  <fragmenstein_error>  (941) 


$$$$
C6159-P103
     RDKit          3D

 37 40  0  0  0  0  0  0  0  0999 V2000
    2.5932  -22.0559   24.9046 C   0  0  0  0  0  0  0  0  0  0  0  0
    3.4855  -21.5134   25.8149 C   0  0  0  0  0  0  0  0  0  0  0  0
    4.1493  -20.3117   25.5134 C   0  0  0  0  0  0  0  0  0  0  0  0
    4.0140  -19.7291   24.2513 C   0  0  0  0  0  0  0  0  0  0  0  0
    4.6190  -18.3819   23.9391 C   0  0  0  0  0  0  0  0  0  0  0  0
    5.2777  -17.6063   24.7798 N   0  0  0  0  0  0  0  0  0  0  0  0
    5.1398  -16.2242   24.5252 N   0  0  0  0  0  0  0  0  0  0  0  0
    4.4094  -16.0195   23.4505 C   0  0  0  0  0  0  0  0  0  0  0  0
    3.3949  -15.0206   23.1899 N   0  0  0  0  0  0  0  0  0  0  0  0
    3.3047  -13.4348   23.7903 C   0  0  0  0  0  0  0  0  0  0  0  0
    3.5419  -12.1248   22.6406 C   0  0  0  0  0  0  0  0  0  0  0  0
    4.6082  -10.6266   22.2620 C   0  0  0  0  0  0  0  0  0  0  0  0
    5.9146  -10.4242   22.4814 N   0  0  0  0  0  0  0  0  0  0  0  0
    6.2705   -9.2171   21.8894 C   0  0  0  0  0  0  0  0  0  0  0  0
    7.5220   -8.5761   21.7756 C   0  0  0  0  0  0  0  0  0  0  0  0
    7.6067   -7.3263   21.1394 C   0  0  0  0  0  0  0  0  0  0  0  0
    6.4657   -6.7324   20.6006 C   0  0  0  0  0  0  0  0  0  0  0  0
    5.2162   -7.3640   20.6858 C   0  0  0  0  0  0  0  0  0  0  0  0
    5.1562   -8.5994   21.3498 C   0  0  0  0  0  0  0  0  0  0  0  0
    4.1183   -9.4616   21.6449 N   0  0  0  0  0  0  0  0  0  0  0  0
    4.6020  -17.5193   22.4301 S   0  0  0  0  0  0  0  0  0  0  0  0
    3.2462  -20.3421   23.3184 N   0  0  0  0  0  0  0  0  0  0  0  0
    2.5072  -21.4307   23.6789 C   0  0  0  0  0  0  0  0  0  0  0  0
    2.0124  -22.9423   25.1254 H   0  0  0  0  0  0  0  0  0  0  0  0
    3.6359  -21.9815   26.7844 H   0  0  0  0  0  0  0  0  0  0  0  0
    4.7759  -19.8401   26.2657 H   0  0  0  0  0  0  0  0  0  0  0  0
    3.2639  -14.9676   22.1817 H   0  0  0  0  0  0  0  0  0  0  0  0
    3.8847  -13.5442   24.6894 H   0  0  0  0  0  0  0  0  0  0  0  0
    2.2850  -13.2377   24.0974 H   0  0  0  0  0  0  0  0  0  0  0  0
    3.5591  -12.6668   21.6882 H   0  0  0  0  0  0  0  0  0  0  0  0
    2.6711  -11.6369   23.0569 H   0  0  0  0  0  0  0  0  0  0  0  0
    8.4026   -9.0485   22.1985 H   0  0  0  0  0  0  0  0  0  0  0  0
    8.5689   -6.8226   21.0858 H   0  0  0  0  0  0  0  0  0  0  0  0
    6.5255   -5.7563   20.1279 H   0  0  0  0  0  0  0  0  0  0  0  0
    4.3227   -6.9012   20.2783 H   0  0  0  0  0  0  0  0  0  0  0  0
    3.1507   -9.3647   21.3534 H   0  0  0  0  0  0  0  0  0  0  0  0
    1.8400  -21.7984   22.9042 H   0  0  0  0  0  0  0  0  0  0  0  0
  1  2  2  0
  2  3  1  0
  3  4  2  0
  4  5  1  0
  5  6  2  0
  6  7  1  0
  7  8  2  0
  8  9  1  0
  9 10  1  0
 10 11  1  0
 11 12  1  0
 12 13  2  0
 13 14  1  0
 14 15  2  0
 15 16  1  0
 16 17  2  0
 17 18  1  0
 18 19  2  0
 19 20  1  0
  8 21  1  0
  4 22  1  0
 22 23  2  0
 23  1  1  0
 21  5  1  0
 20 12  1  0
 19 14  1  0
  1 24  1  0
  2 25  1  0
  3 26  1  0
  9 27  1  0
 10 28  1  0
 10 29  1  0
 11 30  1  0
 11 31  1  0
 15 32  1  0
 16 33  1  0
 17 34  1  0
 18 35  1  0
 20 36  1  0
 23 37  1  0
M  END
>  <Energy>  (942) 
184.57723563132777

>  <compound_id>  (942) 
6159

>  <target_id>  (942) 
1

>  <reference_id>  (942) 
103

>  <inspiration_ids>  (942) 
[82, 103]

>  <energy_score>  (942) 
89.02916591299993

>  <distance_score>  (942) 
15.353295863433138

>  <path>  (942) 
/opt/xchem-fragalysis-2/maxwin/BulkDock/SCRATCH/511018/C6159-P103/C6159-P103.minimised.mol

>  <scratch_subdir>  (942) 
/opt/xchem-fragalysis-2/maxwin/BulkDock/SCRATCH/511018/C6159-P103

>  <fragmenstein_runtime>  (942) 
17.723778009414673

>  <fragmenstein_outcome>  (942) 
too moved

>  <fragmenstein_mode>  (942) 
expansion

>  <fragmenstein_error>  (942) 


$$$$
C6160-P82
     RDKit          3D

 42 45  0  0  0  0  0  0  0  0999 V2000
    8.2954  -13.3260   22.9319 O   0  0  0  0  0  0  0  0  0  0  0  0
    7.6442  -12.8272   23.8101 C   0  0  0  0  0  0  0  0  0  0  0  0
    7.6395  -11.2175   23.8945 C   0  0  0  0  0  0  0  0  0  0  0  0
    8.7602  -10.3898   23.0797 C   0  0  0  0  0  0  0  0  0  0  0  0
    8.4915   -8.8585   22.9087 C   0  0  0  0  0  0  0  0  0  0  0  0
    9.6260   -7.9585   22.4544 C   0  0  0  0  0  0  0  0  0  0  0  0
    9.5109   -6.6578   22.2323 N   0  0  0  0  0  0  0  0  0  0  0  0
   10.7887   -6.1879   22.0311 C   0  0  0  0  0  0  0  0  0  0  0  0
   11.2538   -4.8852   21.8361 C   0  0  0  0  0  0  0  0  0  0  0  0
   12.6171   -4.6706   21.5931 C   0  0  0  0  0  0  0  0  0  0  0  0
   13.5147   -5.7348   21.5998 C   0  0  0  0  0  0  0  0  0  0  0  0
   13.0802   -7.0390   21.8612 C   0  0  0  0  0  0  0  0  0  0  0  0
   11.7062   -7.2267   22.0560 C   0  0  0  0  0  0  0  0  0  0  0  0
   10.9405   -8.3433   22.3000 N   0  0  0  0  0  0  0  0  0  0  0  0
    6.7707  -13.4458   24.8335 N   0  0  0  0  0  0  0  0  0  0  0  0
    6.3766  -14.7783   25.0191 C   0  0  0  0  0  0  0  0  0  0  0  0
    6.5662  -15.8364   24.2643 N   0  0  0  0  0  0  0  0  0  0  0  0
    5.8736  -16.9857   24.7238 N   0  0  0  0  0  0  0  0  0  0  0  0
    5.2042  -16.8132   25.8582 C   0  0  0  0  0  0  0  0  0  0  0  0
    4.2217  -17.8120   26.5224 C   0  0  0  0  0  0  0  0  0  0  0  0
    3.9126  -17.8264   27.8824 C   0  0  0  0  0  0  0  0  0  0  0  0
    2.9024  -18.6700   28.3994 C   0  0  0  0  0  0  0  0  0  0  0  0
    2.2326  -19.5400   27.5562 C   0  0  0  0  0  0  0  0  0  0  0  0
    2.6245  -19.5332   26.2318 C   0  0  0  0  0  0  0  0  0  0  0  0
    3.5720  -18.6924   25.7065 N   0  0  0  0  0  0  0  0  0  0  0  0
    5.4754  -15.1694   26.4563 S   0  0  0  0  0  0  0  0  0  0  0  0
    7.7072  -10.9324   24.9503 H   0  0  0  0  0  0  0  0  0  0  0  0
    6.6603  -10.9055   23.5138 H   0  0  0  0  0  0  0  0  0  0  0  0
    9.7100  -10.5465   23.6053 H   0  0  0  0  0  0  0  0  0  0  0  0
    8.8767  -10.8409   22.0870 H   0  0  0  0  0  0  0  0  0  0  0  0
    7.6566   -8.7332   22.2082 H   0  0  0  0  0  0  0  0  0  0  0  0
    8.1474   -8.4695   23.8757 H   0  0  0  0  0  0  0  0  0  0  0  0
   10.5522   -4.0645   21.8549 H   0  0  0  0  0  0  0  0  0  0  0  0
   12.9736   -3.6598   21.4110 H   0  0  0  0  0  0  0  0  0  0  0  0
   14.5709   -5.5444   21.4228 H   0  0  0  0  0  0  0  0  0  0  0  0
   13.7816   -7.8664   21.8896 H   0  0  0  0  0  0  0  0  0  0  0  0
   11.2973   -9.2813   22.4088 H   0  0  0  0  0  0  0  0  0  0  0  0
    6.4434  -12.7315   25.4656 H   0  0  0  0  0  0  0  0  0  0  0  0
    4.4838  -17.1995   28.5571 H   0  0  0  0  0  0  0  0  0  0  0  0
    2.6832  -18.6623   29.4638 H   0  0  0  0  0  0  0  0  0  0  0  0
    1.4750  -20.2239   27.9182 H   0  0  0  0  0  0  0  0  0  0  0  0
    2.1752  -20.2109   25.5085 H   0  0  0  0  0  0  0  0  0  0  0  0
  1  2  2  0
  2  3  1  0
  3  4  1  0
  4  5  1  0
  5  6  1  0
  6  7  2  0
  7  8  1  0
  8  9  2  0
  9 10  1  0
 10 11  2  0
 11 12  1  0
 12 13  2  0
 13 14  1  0
  2 15  1  0
 15 16  1  0
 16 17  2  0
 17 18  1  0
 18 19  2  0
 19 20  1  0
 20 21  2  0
 21 22  1  0
 22 23  2  0
 23 24  1  0
 24 25  2  0
 19 26  1  0
 14  6  1  0
 26 16  1  0
 13  8  1  0
 25 20  1  0
  3 27  1  0
  3 28  1  0
  4 29  1  0
  4 30  1  0
  5 31  1  0
  5 32  1  0
  9 33  1  0
 10 34  1  0
 11 35  1  0
 12 36  1  0
 14 37  1  0
 15 38  1  0
 21 39  1  0
 22 40  1  0
 23 41  1  0
 24 42  1  0
M  END
>  <Energy>  (943) 
52.433224935390506

>  <compound_id>  (943) 
6160

>  <target_id>  (943) 
1

>  <reference_id>  (943) 
82

>  <inspiration_ids>  (943) 
[82, 103]

>  <energy_score>  (943) 
-48.439884718935446

>  <distance_score>  (943) 
13.237357953384242

>  <path>  (943) 
/opt/xchem-fragalysis-2/maxwin/BulkDock/SCRATCH/511018/C6160-P82/C6160-P82.minimised.mol

>  <scratch_subdir>  (943) 
/opt/xchem-fragalysis-2/maxwin/BulkDock/SCRATCH/511018/C6160-P82

>  <fragmenstein_runtime>  (943) 
29.854031562805176

>  <fragmenstein_outcome>  (943) 
too moved

>  <fragmenstein_mode>  (943) 
expansion

>  <fragmenstein_error>  (943) 


$$$$
C6160-P103
     RDKit          3D

 42 45  0  0  0  0  0  0  0  0999 V2000
   -1.9593  -10.6477   21.1107 O   0  0  0  0  0  0  0  0  0  0  0  0
   -0.8518  -10.1816   21.1723 C   0  0  0  0  0  0  0  0  0  0  0  0
   -0.5565   -8.7211   20.4278 C   0  0  0  0  0  0  0  0  0  0  0  0
    0.6263   -8.1077   19.3224 C   0  0  0  0  0  0  0  0  0  0  0  0
    0.3141   -7.4507   17.9447 C   0  0  0  0  0  0  0  0  0  0  0  0
    1.5612   -7.1976   17.0982 C   0  0  0  0  0  0  0  0  0  0  0  0
    2.8171   -7.0411   17.4766 N   0  0  0  0  0  0  0  0  0  0  0  0
    3.5638   -7.4445   16.3970 C   0  0  0  0  0  0  0  0  0  0  0  0
    4.9067   -7.8228   16.3224 C   0  0  0  0  0  0  0  0  0  0  0  0
    5.3676   -8.4233   15.1364 C   0  0  0  0  0  0  0  0  0  0  0  0
    4.5438   -8.5497   14.0223 C   0  0  0  0  0  0  0  0  0  0  0  0
    3.2216   -8.1052   14.0602 C   0  0  0  0  0  0  0  0  0  0  0  0
    2.7652   -7.5978   15.2778 C   0  0  0  0  0  0  0  0  0  0  0  0
    1.5138   -7.2468   15.7204 N   0  0  0  0  0  0  0  0  0  0  0  0
    0.3283  -10.6428   21.8668 N   0  0  0  0  0  0  0  0  0  0  0  0
    0.5355  -11.7836   22.8069 C   0  0  0  0  0  0  0  0  0  0  0  0
    1.5829  -12.4453   23.6647 N   0  0  0  0  0  0  0  0  0  0  0  0
    0.7334  -13.9687   24.3430 N   0  0  0  0  0  0  0  0  0  0  0  0
   -0.6795  -14.1633   24.3798 C   0  0  0  0  0  0  0  0  0  0  0  0
   -2.0791  -14.7838   25.3896 C   0  0  0  0  0  0  0  0  0  0  0  0
   -2.1706  -15.0585   27.0097 C   0  0  0  0  0  0  0  0  0  0  0  0
   -2.6883  -16.1913   27.6013 C   0  0  0  0  0  0  0  0  0  0  0  0
   -2.5771  -17.2795   26.9163 C   0  0  0  0  0  0  0  0  0  0  0  0
   -2.6887  -16.9678   25.5992 C   0  0  0  0  0  0  0  0  0  0  0  0
   -2.6710  -15.7846   24.7890 N   0  0  0  0  0  0  0  0  0  0  0  0
   -0.1926  -13.9423   22.8026 S   0  0  0  0  0  0  0  0  0  0  0  0
   -1.5133   -8.5592   19.9227 H   0  0  0  0  0  0  0  0  0  0  0  0
   -0.4509   -8.1304   21.3421 H   0  0  0  0  0  0  0  0  0  0  0  0
    1.1157   -7.2659   19.8039 H   0  0  0  0  0  0  0  0  0  0  0  0
    1.4029   -8.8379   19.1362 H   0  0  0  0  0  0  0  0  0  0  0  0
   -0.3531   -8.1244   17.3938 H   0  0  0  0  0  0  0  0  0  0  0  0
   -0.2095   -6.4988   18.0623 H   0  0  0  0  0  0  0  0  0  0  0  0
    5.5081   -7.7319   17.2134 H   0  0  0  0  0  0  0  0  0  0  0  0
    6.3713   -8.8274   15.0556 H   0  0  0  0  0  0  0  0  0  0  0  0
    4.9327   -9.0029   13.1127 H   0  0  0  0  0  0  0  0  0  0  0  0
    2.5662   -8.2208   13.2039 H   0  0  0  0  0  0  0  0  0  0  0  0
    0.6671   -7.3393   15.1804 H   0  0  0  0  0  0  0  0  0  0  0  0
    1.0645   -9.9531   21.7636 H   0  0  0  0  0  0  0  0  0  0  0  0
   -1.5231  -14.7585   27.8293 H   0  0  0  0  0  0  0  0  0  0  0  0
   -3.4119  -16.1083   28.3995 H   0  0  0  0  0  0  0  0  0  0  0  0
   -2.6553  -18.2940   27.1465 H   0  0  0  0  0  0  0  0  0  0  0  0
   -2.4435  -17.9029   25.1808 H   0  0  0  0  0  0  0  0  0  0  0  0
  1  2  2  0
  2  3  1  0
  3  4  1  0
  4  5  1  0
  5  6  1  0
  6  7  2  0
  7  8  1  0
  8  9  2  0
  9 10  1  0
 10 11  2  0
 11 12  1  0
 12 13  2  0
 13 14  1  0
  2 15  1  0
 15 16  1  0
 16 17  2  0
 17 18  1  0
 18 19  2  0
 19 20  1  0
 20 21  2  0
 21 22  1  0
 22 23  2  0
 23 24  1  0
 24 25  2  0
 19 26  1  0
 14  6  1  0
 26 16  1  0
 13  8  1  0
 25 20  1  0
  3 27  1  0
  3 28  1  0
  4 29  1  0
  4 30  1  0
  5 31  1  0
  5 32  1  0
  9 33  1  0
 10 34  1  0
 11 35  1  0
 12 36  1  0
 14 37  1  0
 15 38  1  0
 21 39  1  0
 22 40  1  0
 23 41  1  0
 24 42  1  0
M  END
>  <Energy>  (944) 
492.80795372282046

>  <compound_id>  (944) 
6160

>  <target_id>  (944) 
1

>  <reference_id>  (944) 
103

>  <inspiration_ids>  (944) 
[82, 103]

>  <energy_score>  (944) 
391.93484406849257

>  <distance_score>  (944) 
13.483671246581629

>  <path>  (944) 
/opt/xchem-fragalysis-2/maxwin/BulkDock/SCRATCH/511018/C6160-P103/C6160-P103.minimised.mol

>  <scratch_subdir>  (944) 
/opt/xchem-fragalysis-2/maxwin/BulkDock/SCRATCH/511018/C6160-P103

>  <fragmenstein_runtime>  (944) 
38.532387018203735

>  <fragmenstein_outcome>  (944) 
too moved

>  <fragmenstein_mode>  (944) 
expansion

>  <fragmenstein_error>  (944) 


$$$$
C6161-P82
     RDKit          3D

 33 36  0  0  0  0  0  0  0  0999 V2000
   -3.3858  -11.0564   20.0818 C   0  0  0  0  0  0  0  0  0  0  0  0
   -3.5417   -9.9868   20.9419 C   0  0  0  0  0  0  0  0  0  0  0  0
   -2.4928   -9.0947   21.1736 C   0  0  0  0  0  0  0  0  0  0  0  0
   -1.2932   -9.2685   20.4864 C   0  0  0  0  0  0  0  0  0  0  0  0
   -0.2793   -8.1449   20.3942 C   0  0  0  0  0  0  0  0  0  0  0  0
   -0.4561   -6.9092   20.8541 N   0  0  0  0  0  0  0  0  0  0  0  0
    0.5957   -6.0284   20.5564 N   0  0  0  0  0  0  0  0  0  0  0  0
    1.5624   -6.6121   19.8830 C   0  0  0  0  0  0  0  0  0  0  0  0
    3.0983   -5.8014   19.4269 S   0  0  0  0  0  0  0  0  0  0  0  0
    2.6583   -4.0382   19.1734 C   0  0  0  0  0  0  0  0  0  0  0  0
    3.0018   -3.5342   17.7990 C   0  0  0  0  0  0  0  0  0  0  0  0
    3.2849   -2.2911   17.4422 N   0  0  0  0  0  0  0  0  0  0  0  0
    3.5436   -2.3378   16.0858 C   0  0  0  0  0  0  0  0  0  0  0  0
    3.9626   -1.3353   15.2013 C   0  0  0  0  0  0  0  0  0  0  0  0
    4.2381   -1.6880   13.8705 C   0  0  0  0  0  0  0  0  0  0  0  0
    4.0726   -2.9944   13.4212 C   0  0  0  0  0  0  0  0  0  0  0  0
    3.6317   -3.9970   14.2828 C   0  0  0  0  0  0  0  0  0  0  0  0
    3.4096   -3.6329   15.6074 C   0  0  0  0  0  0  0  0  0  0  0  0
    3.0490   -4.3633   16.7029 N   0  0  0  0  0  0  0  0  0  0  0  0
    1.2187   -8.2704   19.5164 S   0  0  0  0  0  0  0  0  0  0  0  0
   -1.1101  -10.3670   19.6997 N   0  0  0  0  0  0  0  0  0  0  0  0
   -2.1508  -11.2181   19.5138 C   0  0  0  0  0  0  0  0  0  0  0  0
   -4.2037  -11.7208   19.8484 H   0  0  0  0  0  0  0  0  0  0  0  0
   -4.5000   -9.8319   21.4063 H   0  0  0  0  0  0  0  0  0  0  0  0
   -2.6496   -8.2239   21.8062 H   0  0  0  0  0  0  0  0  0  0  0  0
    1.5886   -3.8842   19.3450 H   0  0  0  0  0  0  0  0  0  0  0  0
    3.2027   -3.4498   19.9190 H   0  0  0  0  0  0  0  0  0  0  0  0
    4.0972   -0.3247   15.5649 H   0  0  0  0  0  0  0  0  0  0  0  0
    4.5791   -0.9409   13.1611 H   0  0  0  0  0  0  0  0  0  0  0  0
    4.2813   -3.2325   12.3805 H   0  0  0  0  0  0  0  0  0  0  0  0
    3.4875   -5.0138   13.9342 H   0  0  0  0  0  0  0  0  0  0  0  0
    2.8766   -5.3582   16.7203 H   0  0  0  0  0  0  0  0  0  0  0  0
   -1.9724  -12.0156   18.8013 H   0  0  0  0  0  0  0  0  0  0  0  0
  1  2  2  0
  2  3  1  0
  3  4  2  0
  4  5  1  0
  5  6  2  0
  6  7  1  0
  7  8  2  0
  8  9  1  0
  9 10  1  0
 10 11  1  0
 11 12  2  0
 12 13  1  0
 13 14  2  0
 14 15  1  0
 15 16  2  0
 16 17  1  0
 17 18  2  0
 18 19  1  0
  8 20  1  0
  4 21  1  0
 21 22  2  0
 22  1  1  0
 20  5  1  0
 19 11  1  0
 18 13  1  0
  1 23  1  0
  2 24  1  0
  3 25  1  0
 10 26  1  0
 10 27  1  0
 14 28  1  0
 15 29  1  0
 16 30  1  0
 17 31  1  0
 19 32  1  0
 22 33  1  0
M  END
>  <Energy>  (945) 
54.869528826353708

>  <compound_id>  (945) 
6161

>  <target_id>  (945) 
1

>  <reference_id>  (945) 
82

>  <inspiration_ids>  (945) 
[82, 103]

>  <energy_score>  (945) 
-89.4900600531978

>  <distance_score>  (945) 
15.45173624196953

>  <path>  (945) 
/opt/xchem-fragalysis-2/maxwin/BulkDock/SCRATCH/511018/C6161-P82/C6161-P82.minimised.mol

>  <scratch_subdir>  (945) 
/opt/xchem-fragalysis-2/maxwin/BulkDock/SCRATCH/511018/C6161-P82

>  <fragmenstein_runtime>  (945) 
15.109209537506104

>  <fragmenstein_outcome>  (945) 
too moved

>  <fragmenstein_mode>  (945) 
expansion

>  <fragmenstein_error>  (945) 


$$$$
C6161-P103
     RDKit          3D

 33 36  0  0  0  0  0  0  0  0999 V2000
   -4.5841  -17.1690   19.0995 C   0  0  0  0  0  0  0  0  0  0  0  0
   -5.2426  -16.3346   18.2050 C   0  0  0  0  0  0  0  0  0  0  0  0
   -4.6260  -15.1383   17.7703 C   0  0  0  0  0  0  0  0  0  0  0  0
   -3.3569  -14.7881   18.2442 C   0  0  0  0  0  0  0  0  0  0  0  0
   -2.6915  -13.4576   17.9336 C   0  0  0  0  0  0  0  0  0  0  0  0
   -2.9281  -12.3064   18.5527 N   0  0  0  0  0  0  0  0  0  0  0  0
   -2.0319  -11.2684   18.2092 N   0  0  0  0  0  0  0  0  0  0  0  0
   -1.1488  -11.6279   17.2995 C   0  0  0  0  0  0  0  0  0  0  0  0
    0.2063  -10.5776   16.6968 S   0  0  0  0  0  0  0  0  0  0  0  0
    0.3078   -9.1377   17.8316 C   0  0  0  0  0  0  0  0  0  0  0  0
    1.6305   -8.4363   17.7443 C   0  0  0  0  0  0  0  0  0  0  0  0
    2.1257   -7.7873   16.7084 N   0  0  0  0  0  0  0  0  0  0  0  0
    3.3600   -7.3626   17.1023 C   0  0  0  0  0  0  0  0  0  0  0  0
    4.3327   -6.7237   16.3487 C   0  0  0  0  0  0  0  0  0  0  0  0
    5.5204   -6.4338   16.9975 C   0  0  0  0  0  0  0  0  0  0  0  0
    5.7181   -6.6854   18.3601 C   0  0  0  0  0  0  0  0  0  0  0  0
    4.7597   -7.3338   19.1189 C   0  0  0  0  0  0  0  0  0  0  0  0
    3.6033   -7.6778   18.4335 C   0  0  0  0  0  0  0  0  0  0  0  0
    2.4952   -8.3840   18.8155 N   0  0  0  0  0  0  0  0  0  0  0  0
   -1.4269  -13.2724   16.7351 S   0  0  0  0  0  0  0  0  0  0  0  0
   -2.7113  -15.6161   19.1110 N   0  0  0  0  0  0  0  0  0  0  0  0
   -3.3199  -16.7782   19.4962 C   0  0  0  0  0  0  0  0  0  0  0  0
   -5.0229  -18.0968   19.4458 H   0  0  0  0  0  0  0  0  0  0  0  0
   -6.2320  -16.5967   17.8384 H   0  0  0  0  0  0  0  0  0  0  0  0
   -5.1523  -14.4761   17.0884 H   0  0  0  0  0  0  0  0  0  0  0  0
    0.1232   -9.4766   18.8562 H   0  0  0  0  0  0  0  0  0  0  0  0
   -0.4917   -8.4384   17.5664 H   0  0  0  0  0  0  0  0  0  0  0  0
    4.1707   -6.5076   15.3006 H   0  0  0  0  0  0  0  0  0  0  0  0
    6.3033   -6.0092   16.3915 H   0  0  0  0  0  0  0  0  0  0  0  0
    6.6336   -6.4015   18.8523 H   0  0  0  0  0  0  0  0  0  0  0  0
    4.9071   -7.5753   20.1645 H   0  0  0  0  0  0  0  0  0  0  0  0
    2.3541   -8.8498   19.7065 H   0  0  0  0  0  0  0  0  0  0  0  0
   -2.7180  -17.4086   20.1423 H   0  0  0  0  0  0  0  0  0  0  0  0
  1  2  2  0
  2  3  1  0
  3  4  2  0
  4  5  1  0
  5  6  2  0
  6  7  1  0
  7  8  2  0
  8  9  1  0
  9 10  1  0
 10 11  1  0
 11 12  2  0
 12 13  1  0
 13 14  2  0
 14 15  1  0
 15 16  2  0
 16 17  1  0
 17 18  2  0
 18 19  1  0
  8 20  1  0
  4 21  1  0
 21 22  2  0
 22  1  1  0
 20  5  1  0
 19 11  1  0
 18 13  1  0
  1 23  1  0
  2 24  1  0
  3 25  1  0
 10 26  1  0
 10 27  1  0
 14 28  1  0
 15 29  1  0
 16 30  1  0
 17 31  1  0
 19 32  1  0
 22 33  1  0
M  END
>  <Energy>  (946) 
62.621295520649106

>  <compound_id>  (946) 
6161

>  <target_id>  (946) 
1

>  <reference_id>  (946) 
103

>  <inspiration_ids>  (946) 
[82, 103]

>  <energy_score>  (946) 
-81.73829335889957

>  <distance_score>  (946) 
15.132178287490103

>  <path>  (946) 
/opt/xchem-fragalysis-2/maxwin/BulkDock/SCRATCH/511018/C6161-P103/C6161-P103.minimised.mol

>  <scratch_subdir>  (946) 
/opt/xchem-fragalysis-2/maxwin/BulkDock/SCRATCH/511018/C6161-P103

>  <fragmenstein_runtime>  (946) 
12.341784238815308

>  <fragmenstein_outcome>  (946) 
too moved

>  <fragmenstein_mode>  (946) 
expansion

>  <fragmenstein_error>  (946) 


$$$$
C6162-P82
     RDKit          3D

 40 42  0  0  0  0  0  0  0  0999 V2000
    1.3666  -16.8778   14.8030 C   0  0  0  0  0  0  0  0  0  0  0  0
    0.8369  -16.0061   15.9346 C   0  0  0  0  0  0  0  0  0  0  0  0
   -0.3886  -15.2084   15.4749 C   0  0  0  0  0  0  0  0  0  0  0  0
   -0.9715  -14.2018   16.5037 C   0  0  0  0  0  0  0  0  0  0  0  0
    0.0127  -13.0201   16.7035 C   0  0  0  0  0  0  0  0  0  0  0  0
   -0.5476  -11.7493   17.5374 O   0  0  0  0  0  0  0  0  0  0  0  0
    0.9992  -12.6760   16.3829 N   0  0  0  0  0  0  0  0  0  0  0  0
    1.8830  -11.5186   16.3722 C   0  0  0  0  0  0  0  0  0  0  0  0
    2.9985  -11.4935   15.6597 N   0  0  0  0  0  0  0  0  0  0  0  0
    3.5476  -10.2282   15.8042 C   0  0  0  0  0  0  0  0  0  0  0  0
    4.6754   -9.6512   15.1915 C   0  0  0  0  0  0  0  0  0  0  0  0
    4.9983   -8.3184   15.4753 C   0  0  0  0  0  0  0  0  0  0  0  0
    4.2605   -7.5882   16.4056 C   0  0  0  0  0  0  0  0  0  0  0  0
    3.1406   -8.1531   17.0378 C   0  0  0  0  0  0  0  0  0  0  0  0
    2.7910   -9.4687   16.6856 C   0  0  0  0  0  0  0  0  0  0  0  0
    1.7267  -10.2983   17.0127 N   0  0  0  0  0  0  0  0  0  0  0  0
   -1.7899  -14.9663   17.6167 C   0  0  0  0  0  0  0  0  0  0  0  0
   -3.1895  -14.8356   17.6455 C   0  0  0  0  0  0  0  0  0  0  0  0
   -3.9854  -15.7681   18.3265 C   0  0  0  0  0  0  0  0  0  0  0  0
   -3.3860  -16.8000   19.0235 C   0  0  0  0  0  0  0  0  0  0  0  0
   -2.0064  -16.8368   19.0314 C   0  0  0  0  0  0  0  0  0  0  0  0
   -1.2126  -15.9676   18.3362 N   0  0  0  0  0  0  0  0  0  0  0  0
    0.6010  -17.5804   14.4587 H   0  0  0  0  0  0  0  0  0  0  0  0
    1.6810  -16.2661   13.9513 H   0  0  0  0  0  0  0  0  0  0  0  0
    2.2303  -17.4589   15.1389 H   0  0  0  0  0  0  0  0  0  0  0  0
    1.6345  -15.3349   16.2673 H   0  0  0  0  0  0  0  0  0  0  0  0
    0.5892  -16.6560   16.7777 H   0  0  0  0  0  0  0  0  0  0  0  0
   -0.1116  -14.6519   14.5688 H   0  0  0  0  0  0  0  0  0  0  0  0
   -1.1761  -15.9107   15.1698 H   0  0  0  0  0  0  0  0  0  0  0  0
   -1.7598  -13.6908   15.9253 H   0  0  0  0  0  0  0  0  0  0  0  0
    1.8811  -12.7392   15.8590 H   0  0  0  0  0  0  0  0  0  0  0  0
    5.2587  -10.2269   14.4807 H   0  0  0  0  0  0  0  0  0  0  0  0
    5.8266   -7.8620   14.9466 H   0  0  0  0  0  0  0  0  0  0  0  0
    4.5313   -6.5571   16.6211 H   0  0  0  0  0  0  0  0  0  0  0  0
    2.5412   -7.5805   17.7386 H   0  0  0  0  0  0  0  0  0  0  0  0
    0.9410  -10.0805   17.6120 H   0  0  0  0  0  0  0  0  0  0  0  0
   -3.6772  -14.0633   17.0559 H   0  0  0  0  0  0  0  0  0  0  0  0
   -5.0675  -15.7050   18.2579 H   0  0  0  0  0  0  0  0  0  0  0  0
   -3.9809  -17.5649   19.4951 H   0  0  0  0  0  0  0  0  0  0  0  0
   -1.4656  -17.6080   19.5710 H   0  0  0  0  0  0  0  0  0  0  0  0
  1  2  1  0
  2  3  1  0
  3  4  1  0
  4  5  1  0
  5  6  2  0
  5  7  1  0
  7  8  1  0
  8  9  2  0
  9 10  1  0
 10 11  2  0
 11 12  1  0
 12 13  2  0
 13 14  1  0
 14 15  2  0
 15 16  1  0
  4 17  1  0
 17 18  2  0
 18 19  1  0
 19 20  2  0
 20 21  1  0
 21 22  2  0
 16  8  1  0
 22 17  1  0
 15 10  1  0
  1 23  1  0
  1 24  1  0
  1 25  1  0
  2 26  1  0
  2 27  1  0
  3 28  1  0
  3 29  1  0
  4 30  1  0
  7 31  1  0
 11 32  1  0
 12 33  1  0
 13 34  1  0
 14 35  1  0
 16 36  1  0
 18 37  1  0
 19 38  1  0
 20 39  1  0
 21 40  1  0
M  END
>  <Energy>  (947) 
217.9915956948027

>  <compound_id>  (947) 
6162

>  <target_id>  (947) 
1

>  <reference_id>  (947) 
82

>  <inspiration_ids>  (947) 
[82, 103]

>  <energy_score>  (947) 
153.4081912246436

>  <distance_score>  (947) 
16.44102945655566

>  <path>  (947) 
/opt/xchem-fragalysis-2/maxwin/BulkDock/SCRATCH/511018/C6162-P82/C6162-P82.minimised.mol

>  <scratch_subdir>  (947) 
/opt/xchem-fragalysis-2/maxwin/BulkDock/SCRATCH/511018/C6162-P82

>  <fragmenstein_runtime>  (947) 
35.753511905670166

>  <fragmenstein_outcome>  (947) 
too moved

>  <fragmenstein_mode>  (947) 
expansion

>  <fragmenstein_error>  (947) 


$$$$
C6162-P103
     RDKit          3D

 40 42  0  0  0  0  0  0  0  0999 V2000
    3.0428  -14.3254   22.8497 C   0  0  0  0  0  0  0  0  0  0  0  0
    3.2889  -13.6214   21.0348 C   0  0  0  0  0  0  0  0  0  0  0  0
    2.5643  -14.4820   19.3697 C   0  0  0  0  0  0  0  0  0  0  0  0
    1.9083  -14.0038   17.7734 C   0  0  0  0  0  0  0  0  0  0  0  0
    3.2036  -13.4154   17.0629 C   0  0  0  0  0  0  0  0  0  0  0  0
    4.0562  -14.1447   16.6351 O   0  0  0  0  0  0  0  0  0  0  0  0
    3.1554  -11.9393   17.1534 N   0  0  0  0  0  0  0  0  0  0  0  0
    4.1029  -10.9886   16.8643 C   0  0  0  0  0  0  0  0  0  0  0  0
    3.8466   -9.7136   16.6143 N   0  0  0  0  0  0  0  0  0  0  0  0
    4.7175   -8.9894   17.4013 C   0  0  0  0  0  0  0  0  0  0  0  0
    4.7601   -7.6105   17.6779 C   0  0  0  0  0  0  0  0  0  0  0  0
    5.5623   -7.1639   18.7383 C   0  0  0  0  0  0  0  0  0  0  0  0
    6.3229   -8.0686   19.4876 C   0  0  0  0  0  0  0  0  0  0  0  0
    6.3763   -9.4328   19.1540 C   0  0  0  0  0  0  0  0  0  0  0  0
    5.5687   -9.8499   18.0858 C   0  0  0  0  0  0  0  0  0  0  0  0
    5.3449  -11.0802   17.4805 N   0  0  0  0  0  0  0  0  0  0  0  0
    0.9056  -15.1280   17.2352 C   0  0  0  0  0  0  0  0  0  0  0  0
   -0.4747  -14.8000   17.1550 C   0  0  0  0  0  0  0  0  0  0  0  0
   -1.4799  -15.7797   17.2664 C   0  0  0  0  0  0  0  0  0  0  0  0
   -1.1132  -17.1054   17.3510 C   0  0  0  0  0  0  0  0  0  0  0  0
    0.2424  -17.3717   17.2875 C   0  0  0  0  0  0  0  0  0  0  0  0
    1.2362  -16.4314   17.2755 N   0  0  0  0  0  0  0  0  0  0  0  0
    3.1781  -13.4397   23.5039 H   0  0  0  0  0  0  0  0  0  0  0  0
    3.6802  -15.1549   23.1864 H   0  0  0  0  0  0  0  0  0  0  0  0
    2.0665  -14.5834   23.2075 H   0  0  0  0  0  0  0  0  0  0  0  0
    4.3255  -13.2977   20.6956 H   0  0  0  0  0  0  0  0  0  0  0  0
    3.3041  -12.6667   21.4646 H   0  0  0  0  0  0  0  0  0  0  0  0
    1.9896  -15.1445   19.9964 H   0  0  0  0  0  0  0  0  0  0  0  0
    3.3029  -15.0614   18.7644 H   0  0  0  0  0  0  0  0  0  0  0  0
    1.2099  -13.1697   17.8435 H   0  0  0  0  0  0  0  0  0  0  0  0
    2.2511  -11.6575   17.4900 H   0  0  0  0  0  0  0  0  0  0  0  0
    4.1032   -6.9316   17.1448 H   0  0  0  0  0  0  0  0  0  0  0  0
    5.5456   -6.1121   19.0099 H   0  0  0  0  0  0  0  0  0  0  0  0
    6.9022   -7.7087   20.3357 H   0  0  0  0  0  0  0  0  0  0  0  0
    6.9949  -10.1301   19.7088 H   0  0  0  0  0  0  0  0  0  0  0  0
    5.7189  -11.9547   17.8149 H   0  0  0  0  0  0  0  0  0  0  0  0
   -0.7834  -13.7578   17.1113 H   0  0  0  0  0  0  0  0  0  0  0  0
   -2.5269  -15.4926   17.2632 H   0  0  0  0  0  0  0  0  0  0  0  0
   -1.8426  -17.9044   17.3925 H   0  0  0  0  0  0  0  0  0  0  0  0
    0.6104  -18.3927   17.2321 H   0  0  0  0  0  0  0  0  0  0  0  0
  1  2  1  0
  2  3  1  0
  3  4  1  0
  4  5  1  0
  5  6  2  0
  5  7  1  0
  7  8  1  0
  8  9  2  0
  9 10  1  0
 10 11  2  0
 11 12  1  0
 12 13  2  0
 13 14  1  0
 14 15  2  0
 15 16  1  0
  4 17  1  0
 17 18  2  0
 18 19  1  0
 19 20  2  0
 20 21  1  0
 21 22  2  0
 16  8  1  0
 22 17  1  0
 15 10  1  0
  1 23  1  0
  1 24  1  0
  1 25  1  0
  2 26  1  0
  2 27  1  0
  3 28  1  0
  3 29  1  0
  4 30  1  0
  7 31  1  0
 11 32  1  0
 12 33  1  0
 13 34  1  0
 14 35  1  0
 16 36  1  0
 18 37  1  0
 19 38  1  0
 20 39  1  0
 21 40  1  0
M  END
>  <Energy>  (948) 
247.53426044491138

>  <compound_id>  (948) 
6162

>  <target_id>  (948) 
1

>  <reference_id>  (948) 
103

>  <inspiration_ids>  (948) 
[82, 103]

>  <energy_score>  (948) 
182.9508559747535

>  <distance_score>  (948) 
16.527688036042623

>  <path>  (948) 
/opt/xchem-fragalysis-2/maxwin/BulkDock/SCRATCH/511018/C6162-P103/C6162-P103.minimised.mol

>  <scratch_subdir>  (948) 
/opt/xchem-fragalysis-2/maxwin/BulkDock/SCRATCH/511018/C6162-P103

>  <fragmenstein_runtime>  (948) 
22.22766637802124

>  <fragmenstein_outcome>  (948) 
too moved

>  <fragmenstein_mode>  (948) 
expansion

>  <fragmenstein_error>  (948) 


$$$$
C6165-P82
     RDKit          3D

 41 44  0  0  0  0  0  0  0  0999 V2000
   -1.0354  -10.0690   21.9104 O   0  0  0  0  0  0  0  0  0  0  0  0
    0.0898  -10.4324   21.7098 C   0  0  0  0  0  0  0  0  0  0  0  0
    1.1569   -9.8491   20.8387 N   0  0  0  0  0  0  0  0  0  0  0  0
    1.1846   -8.5975   20.0404 C   0  0  0  0  0  0  0  0  0  0  0  0
    2.5784   -7.8398   20.1910 C   0  0  0  0  0  0  0  0  0  0  0  0
    2.9072   -6.7717   19.1724 C   0  0  0  0  0  0  0  0  0  0  0  0
    2.7210   -5.4682   19.2854 N   0  0  0  0  0  0  0  0  0  0  0  0
    3.0579   -4.9264   18.0667 C   0  0  0  0  0  0  0  0  0  0  0  0
    2.8982   -3.6171   17.5847 C   0  0  0  0  0  0  0  0  0  0  0  0
    3.2397   -3.3436   16.2548 C   0  0  0  0  0  0  0  0  0  0  0  0
    3.7635   -4.3454   15.4365 C   0  0  0  0  0  0  0  0  0  0  0  0
    3.9728   -5.6476   15.9141 C   0  0  0  0  0  0  0  0  0  0  0  0
    3.5906   -5.8988   17.2316 C   0  0  0  0  0  0  0  0  0  0  0  0
    3.5525   -7.0468   17.9838 N   0  0  0  0  0  0  0  0  0  0  0  0
    0.6650  -11.8817   22.7276 C   0  0  0  0  0  0  0  0  0  0  0  0
   -0.1705  -13.8037   23.1048 C   0  0  0  0  0  0  0  0  0  0  0  0
   -0.5007  -14.2261   24.4150 C   0  0  0  0  0  0  0  0  0  0  0  0
   -1.8389  -14.6256   25.3482 C   0  0  0  0  0  0  0  0  0  0  0  0
   -2.5384  -15.6063   24.9218 C   0  0  0  0  0  0  0  0  0  0  0  0
   -2.3591  -15.3643   23.6889 C   0  0  0  0  0  0  0  0  0  0  0  0
   -1.0786  -14.7579   22.6905 N   0  0  0  0  0  0  0  0  0  0  0  0
    2.2185  -12.1585   23.6419 C   0  0  0  0  0  0  0  0  0  0  0  0
    2.5569  -11.6646   22.3429 C   0  0  0  0  0  0  0  0  0  0  0  0
    1.9492  -10.4517   20.8433 H   0  0  0  0  0  0  0  0  0  0  0  0
    0.3557   -7.9569   20.3556 H   0  0  0  0  0  0  0  0  0  0  0  0
    1.0305   -8.8894   18.9968 H   0  0  0  0  0  0  0  0  0  0  0  0
    2.6145   -7.3965   21.1941 H   0  0  0  0  0  0  0  0  0  0  0  0
    3.3796   -8.5907   20.1663 H   0  0  0  0  0  0  0  0  0  0  0  0
    2.4766   -2.8514   18.2259 H   0  0  0  0  0  0  0  0  0  0  0  0
    3.0940   -2.3416   15.8583 H   0  0  0  0  0  0  0  0  0  0  0  0
    3.9974   -4.1017   14.4023 H   0  0  0  0  0  0  0  0  0  0  0  0
    4.3493   -6.4332   15.2693 H   0  0  0  0  0  0  0  0  0  0  0  0
    3.8150   -7.9660   17.6614 H   0  0  0  0  0  0  0  0  0  0  0  0
    0.4801  -14.0493   24.9179 H   0  0  0  0  0  0  0  0  0  0  0  0
   -1.9635  -14.7086   26.4216 H   0  0  0  0  0  0  0  0  0  0  0  0
   -3.0097  -16.3986   25.4075 H   0  0  0  0  0  0  0  0  0  0  0  0
   -3.3022  -15.5219   23.1911 H   0  0  0  0  0  0  0  0  0  0  0  0
    2.6577  -13.1434   23.8284 H   0  0  0  0  0  0  0  0  0  0  0  0
    1.9776  -11.8287   24.6104 H   0  0  0  0  0  0  0  0  0  0  0  0
    3.1437  -12.2915   21.6633 H   0  0  0  0  0  0  0  0  0  0  0  0
    3.1223  -10.7347   22.2586 H   0  0  0  0  0  0  0  0  0  0  0  0
  1  2  2  0
  2  3  1  0
  3  4  1  0
  4  5  1  0
  5  6  1  0
  6  7  2  0
  7  8  1  0
  8  9  2  0
  9 10  1  0
 10 11  2  0
 11 12  1  0
 12 13  2  0
 13 14  1  0
  2 15  1  0
 15 16  1  0
 16 17  2  0
 17 18  1  0
 18 19  2  0
 19 20  1  0
 20 21  2  0
 15 22  1  0
 22 23  1  0
 14  6  1  0
 23 15  1  0
 13  8  1  0
 21 16  1  0
  3 24  1  0
  4 25  1  0
  4 26  1  0
  5 27  1  0
  5 28  1  0
  9 29  1  0
 10 30  1  0
 11 31  1  0
 12 32  1  0
 14 33  1  0
 17 34  1  0
 18 35  1  0
 19 36  1  0
 20 37  1  0
 22 38  1  0
 22 39  1  0
 23 40  1  0
 23 41  1  0
M  END
>  <Energy>  (949) 
463.847057341594

>  <compound_id>  (949) 
6165

>  <target_id>  (949) 
1

>  <reference_id>  (949) 
82

>  <inspiration_ids>  (949) 
[82, 103]

>  <energy_score>  (949) 
409.4520675986257

>  <distance_score>  (949) 
13.74362193822585

>  <path>  (949) 
/opt/xchem-fragalysis-2/maxwin/BulkDock/SCRATCH/511018/C6165-P82/C6165-P82.minimised.mol

>  <scratch_subdir>  (949) 
/opt/xchem-fragalysis-2/maxwin/BulkDock/SCRATCH/511018/C6165-P82

>  <fragmenstein_runtime>  (949) 
27.278748989105225

>  <fragmenstein_outcome>  (949) 
too moved

>  <fragmenstein_mode>  (949) 
expansion

>  <fragmenstein_error>  (949) 


$$$$
C6165-P103
     RDKit          3D

 41 44  0  0  0  0  0  0  0  0999 V2000
    1.0852  -13.8832   26.1762 O   0  0  0  0  0  0  0  0  0  0  0  0
    0.3178  -13.5751   27.0221 C   0  0  0  0  0  0  0  0  0  0  0  0
    0.7291  -11.7903   27.9030 N   0  0  0  0  0  0  0  0  0  0  0  0
    2.0667  -10.6800   27.7510 C   0  0  0  0  0  0  0  0  0  0  0  0
    3.7606  -10.1560   28.5966 C   0  0  0  0  0  0  0  0  0  0  0  0
    5.1264   -9.2930   27.9202 C   0  0  0  0  0  0  0  0  0  0  0  0
    6.0640   -9.7798   27.1154 N   0  0  0  0  0  0  0  0  0  0  0  0
    6.6821   -8.7033   26.4760 C   0  0  0  0  0  0  0  0  0  0  0  0
    7.5946   -8.6682   25.3962 C   0  0  0  0  0  0  0  0  0  0  0  0
    8.0064   -7.4328   24.8707 C   0  0  0  0  0  0  0  0  0  0  0  0
    7.5314   -6.2458   25.4259 C   0  0  0  0  0  0  0  0  0  0  0  0
    6.6361   -6.2591   26.5129 C   0  0  0  0  0  0  0  0  0  0  0  0
    6.2220   -7.5102   27.0091 C   0  0  0  0  0  0  0  0  0  0  0  0
    5.3447   -7.9108   28.0157 N   0  0  0  0  0  0  0  0  0  0  0  0
   -1.2631  -14.9948   27.6516 C   0  0  0  0  0  0  0  0  0  0  0  0
   -2.3108  -16.7958   27.1301 C   0  0  0  0  0  0  0  0  0  0  0  0
   -3.8467  -17.1972   27.4406 C   0  0  0  0  0  0  0  0  0  0  0  0
   -5.3087  -18.5102   27.3095 C   0  0  0  0  0  0  0  0  0  0  0  0
   -5.0312  -19.9045   26.1232 C   0  0  0  0  0  0  0  0  0  0  0  0
   -3.1889  -19.7533   25.8206 C   0  0  0  0  0  0  0  0  0  0  0  0
   -2.1118  -18.3328   26.3153 N   0  0  0  0  0  0  0  0  0  0  0  0
   -2.1146  -14.8022   28.9748 C   0  0  0  0  0  0  0  0  0  0  0  0
   -0.7906  -15.3299   29.4104 C   0  0  0  0  0  0  0  0  0  0  0  0
    0.0751  -11.6469   28.6681 H   0  0  0  0  0  0  0  0  0  0  0  0
    1.5407   -9.7179   27.7703 H   0  0  0  0  0  0  0  0  0  0  0  0
    1.9428  -10.8362   28.8477 H   0  0  0  0  0  0  0  0  0  0  0  0
    4.2916  -11.0566   28.8744 H   0  0  0  0  0  0  0  0  0  0  0  0
    3.5216   -9.5738   29.4599 H   0  0  0  0  0  0  0  0  0  0  0  0
    7.9507   -9.6008   24.9706 H   0  0  0  0  0  0  0  0  0  0  0  0
    8.7015   -7.4075   24.0357 H   0  0  0  0  0  0  0  0  0  0  0  0
    7.8614   -5.2925   25.0179 H   0  0  0  0  0  0  0  0  0  0  0  0
    6.2694   -5.3309   26.9386 H   0  0  0  0  0  0  0  0  0  0  0  0
    4.8171   -7.2849   28.6029 H   0  0  0  0  0  0  0  0  0  0  0  0
   -4.0491  -16.4601   28.2433 H   0  0  0  0  0  0  0  0  0  0  0  0
   -6.2310  -18.4556   27.8840 H   0  0  0  0  0  0  0  0  0  0  0  0
   -5.6759  -20.7194   25.8619 H   0  0  0  0  0  0  0  0  0  0  0  0
   -2.8112  -20.4084   25.0477 H   0  0  0  0  0  0  0  0  0  0  0  0
   -2.5313  -13.8684   29.3598 H   0  0  0  0  0  0  0  0  0  0  0  0
   -3.0176  -15.2691   29.3619 H   0  0  0  0  0  0  0  0  0  0  0  0
   -0.6183  -14.8930   30.3913 H   0  0  0  0  0  0  0  0  0  0  0  0
    0.0509  -16.0039   29.3224 H   0  0  0  0  0  0  0  0  0  0  0  0
  1  2  2  0
  2  3  1  0
  3  4  1  0
  4  5  1  0
  5  6  1  0
  6  7  2  0
  7  8  1  0
  8  9  2  0
  9 10  1  0
 10 11  2  0
 11 12  1  0
 12 13  2  0
 13 14  1  0
  2 15  1  0
 15 16  1  0
 16 17  2  0
 17 18  1  0
 18 19  2  0
 19 20  1  0
 20 21  2  0
 15 22  1  0
 22 23  1  0
 14  6  1  0
 23 15  1  0
 13  8  1  0
 21 16  1  0
  3 24  1  0
  4 25  1  0
  4 26  1  0
  5 27  1  0
  5 28  1  0
  9 29  1  0
 10 30  1  0
 11 31  1  0
 12 32  1  0
 14 33  1  0
 17 34  1  0
 18 35  1  0
 19 36  1  0
 20 37  1  0
 22 38  1  0
 22 39  1  0
 23 40  1  0
 23 41  1  0
M  END
>  <Energy>  (950) 
1083.1418651481672

>  <compound_id>  (950) 
6165

>  <target_id>  (950) 
1

>  <reference_id>  (950) 
103

>  <inspiration_ids>  (950) 
[82, 103]

>  <energy_score>  (950) 
1028.7468754052043

>  <distance_score>  (950) 
13.908939904528077

>  <path>  (950) 
/opt/xchem-fragalysis-2/maxwin/BulkDock/SCRATCH/511018/C6165-P103/C6165-P103.minimised.mol

>  <scratch_subdir>  (950) 
/opt/xchem-fragalysis-2/maxwin/BulkDock/SCRATCH/511018/C6165-P103

>  <fragmenstein_runtime>  (950) 
25.507376194000244

>  <fragmenstein_outcome>  (950) 
too moved

>  <fragmenstein_mode>  (950) 
expansion

>  <fragmenstein_error>  (950) 


$$$$
C6169-P82
     RDKit          3D

 41 44  0  0  0  0  0  0  0  0999 V2000
    5.6690  -14.4332   22.0644 O   0  0  0  0  0  0  0  0  0  0  0  0
    5.5302  -13.9350   23.1476 C   0  0  0  0  0  0  0  0  0  0  0  0
    6.1912  -12.7780   23.7559 N   0  0  0  0  0  0  0  0  0  0  0  0
    7.3319  -11.9009   23.2534 C   0  0  0  0  0  0  0  0  0  0  0  0
    7.0172  -10.6196   22.3858 C   0  0  0  0  0  0  0  0  0  0  0  0
    8.0853   -9.5329   22.1494 C   0  0  0  0  0  0  0  0  0  0  0  0
    7.8236   -8.2824   21.7792 N   0  0  0  0  0  0  0  0  0  0  0  0
    9.0189   -7.5968   21.7900 C   0  0  0  0  0  0  0  0  0  0  0  0
    9.2938   -6.2332   21.5878 C   0  0  0  0  0  0  0  0  0  0  0  0
   10.6133   -5.7801   21.7244 C   0  0  0  0  0  0  0  0  0  0  0  0
   11.6461   -6.6705   22.0177 C   0  0  0  0  0  0  0  0  0  0  0  0
   11.3928   -8.0367   22.2000 C   0  0  0  0  0  0  0  0  0  0  0  0
   10.0622   -8.4607   22.0889 C   0  0  0  0  0  0  0  0  0  0  0  0
    9.4532   -9.6896   22.2554 N   0  0  0  0  0  0  0  0  0  0  0  0
    4.5134  -14.7360   24.0536 C   0  0  0  0  0  0  0  0  0  0  0  0
    4.6651  -14.9786   25.4206 C   0  0  0  0  0  0  0  0  0  0  0  0
    3.7246  -15.7727   26.1007 C   0  0  0  0  0  0  0  0  0  0  0  0
    2.6625  -16.3773   25.5275 N   0  0  0  0  0  0  0  0  0  0  0  0
    2.4998  -16.1895   24.1960 C   0  0  0  0  0  0  0  0  0  0  0  0
    1.3422  -16.8662   23.4946 C   0  0  0  0  0  0  0  0  0  0  0  0
   -0.0055  -16.1832   23.4727 C   0  0  0  0  0  0  0  0  0  0  0  0
    0.1795  -17.4313   24.2803 C   0  0  0  0  0  0  0  0  0  0  0  0
    3.4115  -15.3951   23.4583 C   0  0  0  0  0  0  0  0  0  0  0  0
    5.8866  -12.6908   24.7180 H   0  0  0  0  0  0  0  0  0  0  0  0
    7.9907  -12.5587   22.6759 H   0  0  0  0  0  0  0  0  0  0  0  0
    7.8715  -11.5934   24.1559 H   0  0  0  0  0  0  0  0  0  0  0  0
    6.6707  -10.9641   21.4047 H   0  0  0  0  0  0  0  0  0  0  0  0
    6.1712  -10.1157   22.8675 H   0  0  0  0  0  0  0  0  0  0  0  0
    8.4922   -5.5410   21.3745 H   0  0  0  0  0  0  0  0  0  0  0  0
   10.8389   -4.7232   21.6046 H   0  0  0  0  0  0  0  0  0  0  0  0
   12.6625   -6.2932   22.1143 H   0  0  0  0  0  0  0  0  0  0  0  0
   12.1950   -8.7259   22.4421 H   0  0  0  0  0  0  0  0  0  0  0  0
    9.9319  -10.5459   22.4917 H   0  0  0  0  0  0  0  0  0  0  0  0
    5.5093  -14.5774   25.9691 H   0  0  0  0  0  0  0  0  0  0  0  0
    3.8286  -15.9519   27.1679 H   0  0  0  0  0  0  0  0  0  0  0  0
    1.6141  -17.4254   22.6024 H   0  0  0  0  0  0  0  0  0  0  0  0
   -0.5855  -16.2480   22.5622 H   0  0  0  0  0  0  0  0  0  0  0  0
   -0.1063  -15.2466   24.0102 H   0  0  0  0  0  0  0  0  0  0  0  0
   -0.2692  -18.3495   23.9217 H   0  0  0  0  0  0  0  0  0  0  0  0
    0.1905  -17.3388   25.3612 H   0  0  0  0  0  0  0  0  0  0  0  0
    3.2619  -15.2920   22.3850 H   0  0  0  0  0  0  0  0  0  0  0  0
  1  2  2  0
  2  3  1  0
  3  4  1  0
  4  5  1  0
  5  6  1  0
  6  7  2  0
  7  8  1  0
  8  9  2  0
  9 10  1  0
 10 11  2  0
 11 12  1  0
 12 13  2  0
 13 14  1  0
  2 15  1  0
 15 16  2  0
 16 17  1  0
 17 18  2  0
 18 19  1  0
 19 20  1  0
 20 21  1  0
 21 22  1  0
 19 23  2  0
 14  6  1  0
 23 15  1  0
 13  8  1  0
 22 20  1  0
  3 24  1  0
  4 25  1  0
  4 26  1  0
  5 27  1  0
  5 28  1  0
  9 29  1  0
 10 30  1  0
 11 31  1  0
 12 32  1  0
 14 33  1  0
 16 34  1  0
 17 35  1  0
 20 36  1  0
 21 37  1  0
 21 38  1  0
 22 39  1  0
 22 40  1  0
 23 41  1  0
M  END
>  <Energy>  (951) 
43.839305105708831

>  <compound_id>  (951) 
6169

>  <target_id>  (951) 
1

>  <reference_id>  (951) 
82

>  <inspiration_ids>  (951) 
[82, 103]

>  <energy_score>  (951) 
5.867642751640176

>  <distance_score>  (951) 
15.222501925184044

>  <path>  (951) 
/opt/xchem-fragalysis-2/maxwin/BulkDock/SCRATCH/511018/C6169-P82/C6169-P82.minimised.mol

>  <scratch_subdir>  (951) 
/opt/xchem-fragalysis-2/maxwin/BulkDock/SCRATCH/511018/C6169-P82

>  <fragmenstein_runtime>  (951) 
23.91031765937805

>  <fragmenstein_outcome>  (951) 
too moved

>  <fragmenstein_mode>  (951) 
expansion

>  <fragmenstein_error>  (951) 


$$$$
C6169-P103
     RDKit          3D

 41 44  0  0  0  0  0  0  0  0999 V2000
    5.3870  -14.1569   22.0053 O   0  0  0  0  0  0  0  0  0  0  0  0
    5.4139  -13.7934   23.1490 C   0  0  0  0  0  0  0  0  0  0  0  0
    6.2093  -12.7475   23.7980 N   0  0  0  0  0  0  0  0  0  0  0  0
    7.3245  -11.8579   23.2564 C   0  0  0  0  0  0  0  0  0  0  0  0
    6.9713  -10.5102   22.5069 C   0  0  0  0  0  0  0  0  0  0  0  0
    8.0875   -9.4755   22.2925 C   0  0  0  0  0  0  0  0  0  0  0  0
    9.3918   -9.6668   22.2082 N   0  0  0  0  0  0  0  0  0  0  0  0
    9.9701   -8.4167   22.0778 C   0  0  0  0  0  0  0  0  0  0  0  0
   11.3247   -8.0433   22.0512 C   0  0  0  0  0  0  0  0  0  0  0  0
   11.6635   -6.6868   21.9542 C   0  0  0  0  0  0  0  0  0  0  0  0
   10.6679   -5.7164   21.8801 C   0  0  0  0  0  0  0  0  0  0  0  0
    9.3121   -6.0668   21.8985 C   0  0  0  0  0  0  0  0  0  0  0  0
    9.0000   -7.4280   22.0076 C   0  0  0  0  0  0  0  0  0  0  0  0
    7.8154   -8.1214   22.1267 N   0  0  0  0  0  0  0  0  0  0  0  0
    4.4639  -14.6591   24.0806 C   0  0  0  0  0  0  0  0  0  0  0  0
    4.6647  -14.9349   25.4349 C   0  0  0  0  0  0  0  0  0  0  0  0
    3.7539  -15.7540   26.1280 C   0  0  0  0  0  0  0  0  0  0  0  0
    2.6741  -16.3515   25.5806 N   0  0  0  0  0  0  0  0  0  0  0  0
    2.4613  -16.1311   24.2621 C   0  0  0  0  0  0  0  0  0  0  0  0
    1.2812  -16.7945   23.5867 C   0  0  0  0  0  0  0  0  0  0  0  0
   -0.0576  -16.0934   23.5859 C   0  0  0  0  0  0  0  0  0  0  0  0
    0.1263  -17.3384   24.3985 C   0  0  0  0  0  0  0  0  0  0  0  0
    3.3426  -15.3138   23.5129 C   0  0  0  0  0  0  0  0  0  0  0  0
    6.0349  -12.7697   24.7941 H   0  0  0  0  0  0  0  0  0  0  0  0
    7.9135  -12.4876   22.5802 H   0  0  0  0  0  0  0  0  0  0  0  0
    7.9479  -11.6253   24.1268 H   0  0  0  0  0  0  0  0  0  0  0  0
    6.1640  -10.0201   23.0623 H   0  0  0  0  0  0  0  0  0  0  0  0
    6.5727  -10.7846   21.5244 H   0  0  0  0  0  0  0  0  0  0  0  0
   12.0928   -8.8054   22.1298 H   0  0  0  0  0  0  0  0  0  0  0  0
   12.7094   -6.3896   21.9459 H   0  0  0  0  0  0  0  0  0  0  0  0
   10.9541   -4.6678   21.8177 H   0  0  0  0  0  0  0  0  0  0  0  0
    8.5516   -5.2995   21.8807 H   0  0  0  0  0  0  0  0  0  0  0  0
    6.8940   -7.7083   22.1668 H   0  0  0  0  0  0  0  0  0  0  0  0
    5.5208  -14.5404   25.9690 H   0  0  0  0  0  0  0  0  0  0  0  0
    3.8982  -15.9586   27.1859 H   0  0  0  0  0  0  0  0  0  0  0  0
    1.5288  -17.3627   22.6932 H   0  0  0  0  0  0  0  0  0  0  0  0
   -0.1386  -15.1528   24.1200 H   0  0  0  0  0  0  0  0  0  0  0  0
   -0.6556  -16.1560   22.6870 H   0  0  0  0  0  0  0  0  0  0  0  0
   -0.3412  -18.2530   24.0552 H   0  0  0  0  0  0  0  0  0  0  0  0
    0.1603  -17.2387   25.4782 H   0  0  0  0  0  0  0  0  0  0  0  0
    3.1519  -15.1891   22.4487 H   0  0  0  0  0  0  0  0  0  0  0  0
  1  2  2  0
  2  3  1  0
  3  4  1  0
  4  5  1  0
  5  6  1  0
  6  7  2  0
  7  8  1  0
  8  9  2  0
  9 10  1  0
 10 11  2  0
 11 12  1  0
 12 13  2  0
 13 14  1  0
  2 15  1  0
 15 16  2  0
 16 17  1  0
 17 18  2  0
 18 19  1  0
 19 20  1  0
 20 21  1  0
 21 22  1  0
 19 23  2  0
 14  6  1  0
 23 15  1  0
 13  8  1  0
 22 20  1  0
  3 24  1  0
  4 25  1  0
  4 26  1  0
  5 27  1  0
  5 28  1  0
  9 29  1  0
 10 30  1  0
 11 31  1  0
 12 32  1  0
 14 33  1  0
 16 34  1  0
 17 35  1  0
 20 36  1  0
 21 37  1  0
 21 38  1  0
 22 39  1  0
 22 40  1  0
 23 41  1  0
M  END
>  <Energy>  (952) 
40.363591548271287

>  <compound_id>  (952) 
6169

>  <target_id>  (952) 
1

>  <reference_id>  (952) 
103

>  <inspiration_ids>  (952) 
[82, 103]

>  <energy_score>  (952) 
2.3919291941995766

>  <distance_score>  (952) 
15.232042095919528

>  <path>  (952) 
/opt/xchem-fragalysis-2/maxwin/BulkDock/SCRATCH/511018/C6169-P103/C6169-P103.minimised.mol

>  <scratch_subdir>  (952) 
/opt/xchem-fragalysis-2/maxwin/BulkDock/SCRATCH/511018/C6169-P103

>  <fragmenstein_runtime>  (952) 
27.88161826133728

>  <fragmenstein_outcome>  (952) 
too moved

>  <fragmenstein_mode>  (952) 
expansion

>  <fragmenstein_error>  (952) 


$$$$
C6170-P82
     RDKit          3D

 39 42  0  0  0  0  0  0  0  0999 V2000
   11.2148   -4.9446   22.0180 C   0  0  0  0  0  0  0  0  0  0  0  0
   12.1031   -6.0061   22.1628 C   0  0  0  0  0  0  0  0  0  0  0  0
   11.6533   -7.3260   22.1131 C   0  0  0  0  0  0  0  0  0  0  0  0
   10.2916   -7.5223   21.8671 C   0  0  0  0  0  0  0  0  0  0  0  0
    9.5334   -8.6565   21.7391 N   0  0  0  0  0  0  0  0  0  0  0  0
    8.2305   -8.2958   21.4877 C   0  0  0  0  0  0  0  0  0  0  0  0
    7.1452   -9.3313   21.2780 C   0  0  0  0  0  0  0  0  0  0  0  0
    7.0887  -10.4064   22.3318 N   0  0  0  0  0  0  0  0  0  0  0  0
    6.0425  -11.4738   22.0077 C   0  0  0  0  0  0  0  0  0  0  0  0
    5.7977  -12.6880   22.9662 C   0  0  0  0  0  0  0  0  0  0  0  0
    6.4187  -12.8681   24.1969 C   0  0  0  0  0  0  0  0  0  0  0  0
    6.2153  -14.0412   24.9548 C   0  0  0  0  0  0  0  0  0  0  0  0
    5.4210  -15.0813   24.4798 C   0  0  0  0  0  0  0  0  0  0  0  0
    5.4137  -16.4584   25.1222 C   0  0  0  0  0  0  0  0  0  0  0  0
    5.2770  -16.6250   26.6182 C   0  0  0  0  0  0  0  0  0  0  0  0
    6.5684  -16.9860   25.9432 C   0  0  0  0  0  0  0  0  0  0  0  0
    4.7128  -14.8895   23.3403 N   0  0  0  0  0  0  0  0  0  0  0  0
    4.9069  -13.7271   22.6331 C   0  0  0  0  0  0  0  0  0  0  0  0
    8.1305   -6.9767   21.4001 N   0  0  0  0  0  0  0  0  0  0  0  0
    9.3900   -6.4843   21.6761 C   0  0  0  0  0  0  0  0  0  0  0  0
    9.8500   -5.1664   21.7790 C   0  0  0  0  0  0  0  0  0  0  0  0
   11.5951   -3.9298   22.0814 H   0  0  0  0  0  0  0  0  0  0  0  0
   13.1565   -5.8002   22.3408 H   0  0  0  0  0  0  0  0  0  0  0  0
   12.3372   -8.1564   22.2526 H   0  0  0  0  0  0  0  0  0  0  0  0
    9.8531   -9.6087   21.8495 H   0  0  0  0  0  0  0  0  0  0  0  0
    6.1755   -8.8216   21.2409 H   0  0  0  0  0  0  0  0  0  0  0  0
    7.3172   -9.8013   20.3023 H   0  0  0  0  0  0  0  0  0  0  0  0
    6.8003   -9.9546   23.1997 H   0  0  0  0  0  0  0  0  0  0  0  0
    5.0780  -10.9668   21.8840 H   0  0  0  0  0  0  0  0  0  0  0  0
    6.3270  -11.9079   21.0412 H   0  0  0  0  0  0  0  0  0  0  0  0
    7.1143  -12.1216   24.5727 H   0  0  0  0  0  0  0  0  0  0  0  0
    6.7620  -14.1520   25.8860 H   0  0  0  0  0  0  0  0  0  0  0  0
    4.9305  -17.2181   24.5081 H   0  0  0  0  0  0  0  0  0  0  0  0
    5.2515  -15.7407   27.2445 H   0  0  0  0  0  0  0  0  0  0  0  0
    4.6433  -17.4288   26.9753 H   0  0  0  0  0  0  0  0  0  0  0  0
    6.8113  -18.0386   25.8433 H   0  0  0  0  0  0  0  0  0  0  0  0
    7.4345  -16.3613   26.1198 H   0  0  0  0  0  0  0  0  0  0  0  0
    4.3282  -13.6820   21.7117 H   0  0  0  0  0  0  0  0  0  0  0  0
    9.1658   -4.3379   21.6520 H   0  0  0  0  0  0  0  0  0  0  0  0
  1  2  2  0
  2  3  1  0
  3  4  2  0
  4  5  1  0
  5  6  1  0
  6  7  1  0
  7  8  1  0
  8  9  1  0
  9 10  1  0
 10 11  2  0
 11 12  1  0
 12 13  2  0
 13 14  1  0
 14 15  1  0
 15 16  1  0
 13 17  1  0
 17 18  2  0
  6 19  2  0
 19 20  1  0
 20 21  2  0
 21  1  1  0
 20  4  1  0
 18 10  1  0
 16 14  1  0
  1 22  1  0
  2 23  1  0
  3 24  1  0
  5 25  1  0
  7 26  1  0
  7 27  1  0
  8 28  1  0
  9 29  1  0
  9 30  1  0
 11 31  1  0
 12 32  1  0
 14 33  1  0
 15 34  1  0
 15 35  1  0
 16 36  1  0
 16 37  1  0
 18 38  1  0
 21 39  1  0
M  END
>  <Energy>  (953) 
47.972093337367419

>  <compound_id>  (953) 
6170

>  <target_id>  (953) 
1

>  <reference_id>  (953) 
82

>  <inspiration_ids>  (953) 
[82, 103]

>  <energy_score>  (953) 
-14.452290314298068

>  <distance_score>  (953) 
16.641886827368594

>  <path>  (953) 
/opt/xchem-fragalysis-2/maxwin/BulkDock/SCRATCH/511018/C6170-P82/C6170-P82.minimised.mol

>  <scratch_subdir>  (953) 
/opt/xchem-fragalysis-2/maxwin/BulkDock/SCRATCH/511018/C6170-P82

>  <fragmenstein_runtime>  (953) 
21.014909744262695

>  <fragmenstein_outcome>  (953) 
too moved

>  <fragmenstein_mode>  (953) 
expansion

>  <fragmenstein_error>  (953) 


$$$$
C6170-P103
     RDKit          3D

 39 42  0  0  0  0  0  0  0  0999 V2000
    5.8017   -4.4361   21.5570 C   0  0  0  0  0  0  0  0  0  0  0  0
    4.9044   -3.6175   20.8697 C   0  0  0  0  0  0  0  0  0  0  0  0
    3.5172   -3.7480   21.0329 C   0  0  0  0  0  0  0  0  0  0  0  0
    3.0705   -4.6855   21.9743 C   0  0  0  0  0  0  0  0  0  0  0  0
    1.8127   -5.0376   22.4362 N   0  0  0  0  0  0  0  0  0  0  0  0
    1.9360   -5.9325   23.4929 C   0  0  0  0  0  0  0  0  0  0  0  0
    0.7812   -6.2521   24.5161 C   0  0  0  0  0  0  0  0  0  0  0  0
   -0.3196   -7.2519   24.1964 N   0  0  0  0  0  0  0  0  0  0  0  0
   -1.2496   -7.7228   25.4185 C   0  0  0  0  0  0  0  0  0  0  0  0
   -2.3532   -9.1586   25.3004 C   0  0  0  0  0  0  0  0  0  0  0  0
   -2.3791  -10.6675   26.4561 C   0  0  0  0  0  0  0  0  0  0  0  0
   -3.2608  -11.9209   26.3788 C   0  0  0  0  0  0  0  0  0  0  0  0
   -3.2194  -12.4100   25.2348 C   0  0  0  0  0  0  0  0  0  0  0  0
   -2.3125  -14.0199   25.5009 C   0  0  0  0  0  0  0  0  0  0  0  0
   -2.3202  -14.9634   26.6944 C   0  0  0  0  0  0  0  0  0  0  0  0
   -2.5529  -15.4026   24.9593 C   0  0  0  0  0  0  0  0  0  0  0  0
   -3.5184  -11.2844   24.1367 N   0  0  0  0  0  0  0  0  0  0  0  0
   -2.9340   -9.6697   24.0028 C   0  0  0  0  0  0  0  0  0  0  0  0
    3.2293   -6.2350   23.6293 N   0  0  0  0  0  0  0  0  0  0  0  0
    3.9377   -5.4803   22.7087 C   0  0  0  0  0  0  0  0  0  0  0  0
    5.3262   -5.3806   22.4777 C   0  0  0  0  0  0  0  0  0  0  0  0
    6.8720   -4.3239   21.4107 H   0  0  0  0  0  0  0  0  0  0  0  0
    5.2753   -2.8456   20.2028 H   0  0  0  0  0  0  0  0  0  0  0  0
    2.8253   -3.1169   20.4854 H   0  0  0  0  0  0  0  0  0  0  0  0
    0.9436   -4.6265   22.1327 H   0  0  0  0  0  0  0  0  0  0  0  0
    1.2831   -6.6068   25.4240 H   0  0  0  0  0  0  0  0  0  0  0  0
    0.2984   -5.3006   24.7696 H   0  0  0  0  0  0  0  0  0  0  0  0
   -0.9489   -6.8742   23.4909 H   0  0  0  0  0  0  0  0  0  0  0  0
   -1.8668   -6.8713   25.7260 H   0  0  0  0  0  0  0  0  0  0  0  0
   -0.5784   -7.9542   26.2542 H   0  0  0  0  0  0  0  0  0  0  0  0
   -1.6850  -10.4810   27.3456 H   0  0  0  0  0  0  0  0  0  0  0  0
   -3.7575  -12.3036   27.2451 H   0  0  0  0  0  0  0  0  0  0  0  0
   -1.3298  -13.7167   25.1769 H   0  0  0  0  0  0  0  0  0  0  0  0
   -2.4948  -15.9869   27.1737 H   0  0  0  0  0  0  0  0  0  0  0  0
   -1.5707  -15.0122   27.5004 H   0  0  0  0  0  0  0  0  0  0  0  0
   -3.4100  -15.4172   24.2556 H   0  0  0  0  0  0  0  0  0  0  0  0
   -2.9342  -16.4389   25.1322 H   0  0  0  0  0  0  0  0  0  0  0  0
   -3.0586   -9.2424   23.0065 H   0  0  0  0  0  0  0  0  0  0  0  0
    6.0080   -6.0011   23.0487 H   0  0  0  0  0  0  0  0  0  0  0  0
  1  2  2  0
  2  3  1  0
  3  4  2  0
  4  5  1  0
  5  6  1  0
  6  7  1  0
  7  8  1  0
  8  9  1  0
  9 10  1  0
 10 11  2  0
 11 12  1  0
 12 13  2  0
 13 14  1  0
 14 15  1  0
 15 16  1  0
 13 17  1  0
 17 18  2  0
  6 19  2  0
 19 20  1  0
 20 21  2  0
 21  1  1  0
 20  4  1  0
 18 10  1  0
 16 14  1  0
  1 22  1  0
  2 23  1  0
  3 24  1  0
  5 25  1  0
  7 26  1  0
  7 27  1  0
  8 28  1  0
  9 29  1  0
  9 30  1  0
 11 31  1  0
 12 32  1  0
 14 33  1  0
 15 34  1  0
 15 35  1  0
 16 36  1  0
 16 37  1  0
 18 38  1  0
 21 39  1  0
M  END
>  <Energy>  (954) 
441.11227464887958

>  <compound_id>  (954) 
6170

>  <target_id>  (954) 
1

>  <reference_id>  (954) 
103

>  <inspiration_ids>  (954) 
[82, 103]

>  <energy_score>  (954) 
378.6878909972087

>  <distance_score>  (954) 
14.974482038865652

>  <path>  (954) 
/opt/xchem-fragalysis-2/maxwin/BulkDock/SCRATCH/511018/C6170-P103/C6170-P103.minimised.mol

>  <scratch_subdir>  (954) 
/opt/xchem-fragalysis-2/maxwin/BulkDock/SCRATCH/511018/C6170-P103

>  <fragmenstein_runtime>  (954) 
19.912705898284912

>  <fragmenstein_outcome>  (954) 
too moved

>  <fragmenstein_mode>  (954) 
expansion

>  <fragmenstein_error>  (954) 


$$$$
C6171-P82
     RDKit          3D

 36 39  0  0  0  0  0  0  0  0999 V2000
    0.0741  -16.4700   28.9572 C   0  0  0  0  0  0  0  0  0  0  0  0
    1.7659  -16.2111   28.6705 C   0  0  0  0  0  0  0  0  0  0  0  0
    2.5377  -14.8707   27.7817 C   0  0  0  0  0  0  0  0  0  0  0  0
    1.7202  -13.7954   26.6146 C   0  0  0  0  0  0  0  0  0  0  0  0
    2.1166  -13.1357   24.6765 C   0  0  0  0  0  0  0  0  0  0  0  0
    2.7143  -11.8024   23.4954 C   0  0  0  0  0  0  0  0  0  0  0  0
    4.1161  -10.9118   22.7652 N   0  0  0  0  0  0  0  0  0  0  0  0
    4.7737   -9.6123   22.7787 C   0  0  0  0  0  0  0  0  0  0  0  0
    4.3863   -8.3537   22.9017 N   0  0  0  0  0  0  0  0  0  0  0  0
    5.4236   -7.5575   22.3874 C   0  0  0  0  0  0  0  0  0  0  0  0
    5.5031   -6.1709   22.1399 C   0  0  0  0  0  0  0  0  0  0  0  0
    6.6931   -5.6195   21.6220 C   0  0  0  0  0  0  0  0  0  0  0  0
    7.7995   -6.4279   21.3579 C   0  0  0  0  0  0  0  0  0  0  0  0
    7.7362   -7.8109   21.5658 C   0  0  0  0  0  0  0  0  0  0  0  0
    6.5327   -8.3293   22.0749 C   0  0  0  0  0  0  0  0  0  0  0  0
    6.1193   -9.6031   22.3793 N   0  0  0  0  0  0  0  0  0  0  0  0
    0.9438  -14.1746   23.8396 C   0  0  0  0  0  0  0  0  0  0  0  0
    2.8069  -14.1995   23.6007 C   0  0  0  0  0  0  0  0  0  0  0  0
    0.2170  -14.1805   27.1996 N   0  0  0  0  0  0  0  0  0  0  0  0
   -0.8475  -15.3486   28.2255 C   0  0  0  0  0  0  0  0  0  0  0  0
   -0.3014  -17.2794   29.5620 H   0  0  0  0  0  0  0  0  0  0  0  0
    2.4531  -16.8929   29.1784 H   0  0  0  0  0  0  0  0  0  0  0  0
    3.6345  -14.9062   27.7364 H   0  0  0  0  0  0  0  0  0  0  0  0
    1.8440  -11.6543   22.8758 H   0  0  0  0  0  0  0  0  0  0  0  0
    3.2216  -12.5241   22.9203 H   0  0  0  0  0  0  0  0  0  0  0  0
    4.4020  -11.4292   21.9494 H   0  0  0  0  0  0  0  0  0  0  0  0
    4.6461   -5.5431   22.3607 H   0  0  0  0  0  0  0  0  0  0  0  0
    6.7506   -4.5463   21.4590 H   0  0  0  0  0  0  0  0  0  0  0  0
    8.7283   -5.9804   21.0094 H   0  0  0  0  0  0  0  0  0  0  0  0
    8.5879   -8.4507   21.3594 H   0  0  0  0  0  0  0  0  0  0  0  0
    6.6547  -10.4415   22.2324 H   0  0  0  0  0  0  0  0  0  0  0  0
    0.1901  -14.3835   24.5500 H   0  0  0  0  0  0  0  0  0  0  0  0
    0.0991  -14.0098   23.1157 H   0  0  0  0  0  0  0  0  0  0  0  0
    3.0365  -14.3485   22.5749 H   0  0  0  0  0  0  0  0  0  0  0  0
    3.6624  -14.6677   24.1030 H   0  0  0  0  0  0  0  0  0  0  0  0
   -1.9100  -15.2020   28.1708 H   0  0  0  0  0  0  0  0  0  0  0  0
  1  2  2  0
  2  3  1  0
  3  4  2  0
  4  5  1  0
  5  6  1  0
  6  7  1  0
  7  8  1  0
  8  9  2  0
  9 10  1  0
 10 11  2  0
 11 12  1  0
 12 13  2  0
 13 14  1  0
 14 15  2  0
 15 16  1  0
  5 17  1  0
 17 18  1  0
  4 19  1  0
 19 20  2  0
 20  1  1  0
 18  5  1  0
 16  8  1  0
 15 10  1  0
  1 21  1  0
  2 22  1  0
  3 23  1  0
  6 24  1  0
  6 25  1  0
  7 26  1  0
 11 27  1  0
 12 28  1  0
 13 29  1  0
 14 30  1  0
 16 31  1  0
 17 32  1  0
 17 33  1  0
 18 34  1  0
 18 35  1  0
 20 36  1  0
M  END
>  <Energy>  (955) 
687.47580941649358

>  <compound_id>  (955) 
6171

>  <target_id>  (955) 
1

>  <reference_id>  (955) 
82

>  <inspiration_ids>  (955) 
[82, 103]

>  <energy_score>  (955) 
650.5718104106345

>  <distance_score>  (955) 
14.693485654531019

>  <path>  (955) 
/opt/xchem-fragalysis-2/maxwin/BulkDock/SCRATCH/511018/C6171-P82/C6171-P82.minimised.mol

>  <scratch_subdir>  (955) 
/opt/xchem-fragalysis-2/maxwin/BulkDock/SCRATCH/511018/C6171-P82

>  <fragmenstein_runtime>  (955) 
18.229039192199707

>  <fragmenstein_outcome>  (955) 
too moved

>  <fragmenstein_mode>  (955) 
expansion

>  <fragmenstein_error>  (955) 


$$$$
C6171-P103
     RDKit          3D

 36 39  0  0  0  0  0  0  0  0999 V2000
   -5.8708  -15.5976   28.7540 C   0  0  0  0  0  0  0  0  0  0  0  0
   -6.6847  -13.9036   28.2037 C   0  0  0  0  0  0  0  0  0  0  0  0
   -5.7746  -12.3559   27.3271 C   0  0  0  0  0  0  0  0  0  0  0  0
   -3.8185  -12.6030   26.9550 C   0  0  0  0  0  0  0  0  0  0  0  0
   -2.6148  -10.8890   26.5492 C   0  0  0  0  0  0  0  0  0  0  0  0
   -2.5590   -9.0732   25.4538 C   0  0  0  0  0  0  0  0  0  0  0  0
   -1.2559   -7.8757   25.5360 N   0  0  0  0  0  0  0  0  0  0  0  0
   -0.4115   -7.1764   24.6132 C   0  0  0  0  0  0  0  0  0  0  0  0
    0.4389   -6.2105   24.9703 N   0  0  0  0  0  0  0  0  0  0  0  0
    1.2975   -5.9530   23.8975 C   0  0  0  0  0  0  0  0  0  0  0  0
    2.4185   -5.0988   23.7715 C   0  0  0  0  0  0  0  0  0  0  0  0
    3.1648   -5.0891   22.5761 C   0  0  0  0  0  0  0  0  0  0  0  0
    2.8034   -5.9168   21.5145 C   0  0  0  0  0  0  0  0  0  0  0  0
    1.6819   -6.7571   21.6132 C   0  0  0  0  0  0  0  0  0  0  0  0
    0.9469   -6.7376   22.8162 C   0  0  0  0  0  0  0  0  0  0  0  0
   -0.1798   -7.4285   23.2567 N   0  0  0  0  0  0  0  0  0  0  0  0
   -1.4066  -10.5913   27.3539 C   0  0  0  0  0  0  0  0  0  0  0  0
   -2.0028  -11.7616   25.7694 C   0  0  0  0  0  0  0  0  0  0  0  0
   -2.9257  -14.4225   27.0965 N   0  0  0  0  0  0  0  0  0  0  0  0
   -3.8803  -15.8683   28.1481 C   0  0  0  0  0  0  0  0  0  0  0  0
   -6.3667  -16.3202   29.4028 H   0  0  0  0  0  0  0  0  0  0  0  0
   -7.7058  -13.7120   28.5452 H   0  0  0  0  0  0  0  0  0  0  0  0
   -6.3635  -11.4480   27.2632 H   0  0  0  0  0  0  0  0  0  0  0  0
   -2.7267   -9.2503   24.3719 H   0  0  0  0  0  0  0  0  0  0  0  0
   -3.3376   -8.3386   25.7313 H   0  0  0  0  0  0  0  0  0  0  0  0
   -1.3221   -7.3448   26.4041 H   0  0  0  0  0  0  0  0  0  0  0  0
    2.7047   -4.4728   24.6097 H   0  0  0  0  0  0  0  0  0  0  0  0
    4.0303   -4.4383   22.4906 H   0  0  0  0  0  0  0  0  0  0  0  0
    3.3882   -5.9163   20.5983 H   0  0  0  0  0  0  0  0  0  0  0  0
    1.4008   -7.4193   20.7982 H   0  0  0  0  0  0  0  0  0  0  0  0
   -0.6336   -8.1342   22.7020 H   0  0  0  0  0  0  0  0  0  0  0  0
   -0.5768   -9.8818   27.2989 H   0  0  0  0  0  0  0  0  0  0  0  0
   -1.5250  -10.7018   28.4465 H   0  0  0  0  0  0  0  0  0  0  0  0
   -2.9165  -12.0524   25.1773 H   0  0  0  0  0  0  0  0  0  0  0  0
   -1.9758  -12.8600   25.6327 H   0  0  0  0  0  0  0  0  0  0  0  0
   -3.2581  -16.7420   28.3317 H   0  0  0  0  0  0  0  0  0  0  0  0
  1  2  2  0
  2  3  1  0
  3  4  2  0
  4  5  1  0
  5  6  1  0
  6  7  1  0
  7  8  1  0
  8  9  2  0
  9 10  1  0
 10 11  2  0
 11 12  1  0
 12 13  2  0
 13 14  1  0
 14 15  2  0
 15 16  1  0
  5 17  1  0
 17 18  1  0
  4 19  1  0
 19 20  2  0
 20  1  1  0
 18  5  1  0
 16  8  1  0
 15 10  1  0
  1 21  1  0
  2 22  1  0
  3 23  1  0
  6 24  1  0
  6 25  1  0
  7 26  1  0
 11 27  1  0
 12 28  1  0
 13 29  1  0
 14 30  1  0
 16 31  1  0
 17 32  1  0
 17 33  1  0
 18 34  1  0
 18 35  1  0
 20 36  1  0
M  END
>  <Energy>  (956) 
1203.4227123210703

>  <compound_id>  (956) 
6171

>  <target_id>  (956) 
1

>  <reference_id>  (956) 
103

>  <inspiration_ids>  (956) 
[82, 103]

>  <energy_score>  (956) 
1166.5187133152276

>  <distance_score>  (956) 
15.119163745837104

>  <path>  (956) 
/opt/xchem-fragalysis-2/maxwin/BulkDock/SCRATCH/511018/C6171-P103/C6171-P103.minimised.mol

>  <scratch_subdir>  (956) 
/opt/xchem-fragalysis-2/maxwin/BulkDock/SCRATCH/511018/C6171-P103

>  <fragmenstein_runtime>  (956) 
16.403751611709595

>  <fragmenstein_outcome>  (956) 
too moved

>  <fragmenstein_mode>  (956) 
expansion

>  <fragmenstein_error>  (956) 


$$$$
C6172-P82
     RDKit          3D

 40 43  0  0  0  0  0  0  0  0999 V2000
    6.5092   -9.6892   20.4062 C   0  0  0  0  0  0  0  0  0  0  0  0
    5.8417   -8.6753   21.3566 C   0  0  0  0  0  0  0  0  0  0  0  0
    4.6513  -10.1023   22.3127 O   0  0  0  0  0  0  0  0  0  0  0  0
    3.6405  -11.7951   22.3832 C   0  0  0  0  0  0  0  0  0  0  0  0
    3.7967  -12.3979   21.3014 O   0  0  0  0  0  0  0  0  0  0  0  0
    2.4796  -13.0281   23.7097 C   0  0  0  0  0  0  0  0  0  0  0  0
    2.3202  -14.4878   23.0714 C   0  0  0  0  0  0  0  0  0  0  0  0
    0.6864  -14.9789   21.9424 C   0  0  0  0  0  0  0  0  0  0  0  0
   -0.5227  -14.7760   21.8303 C   0  0  0  0  0  0  0  0  0  0  0  0
   -0.3310  -14.1678   22.9368 N   0  0  0  0  0  0  0  0  0  0  0  0
    0.8034  -13.9629   23.9859 C   0  0  0  0  0  0  0  0  0  0  0  0
   -0.9778  -14.0567   24.8749 C   0  0  0  0  0  0  0  0  0  0  0  0
   -2.0767  -14.6012   25.7768 C   0  0  0  0  0  0  0  0  0  0  0  0
   -2.1500  -15.3863   24.5855 C   0  0  0  0  0  0  0  0  0  0  0  0
    7.0839   -6.9563   21.0036 C   0  0  0  0  0  0  0  0  0  0  0  0
    7.1526   -5.2714   20.6668 N   0  0  0  0  0  0  0  0  0  0  0  0
    8.4800   -3.9885   20.1278 C   0  0  0  0  0  0  0  0  0  0  0  0
    8.4952   -2.1669   19.2684 C   0  0  0  0  0  0  0  0  0  0  0  0
    9.1996   -1.9643   17.2235 C   0  0  0  0  0  0  0  0  0  0  0  0
   10.6135   -3.2872   16.8924 C   0  0  0  0  0  0  0  0  0  0  0  0
   10.7162   -4.8719   18.0061 C   0  0  0  0  0  0  0  0  0  0  0  0
    9.6678   -5.3165   19.6670 C   0  0  0  0  0  0  0  0  0  0  0  0
    8.7859   -6.7034   20.4552 N   0  0  0  0  0  0  0  0  0  0  0  0
    5.8232  -10.4987   20.1418 H   0  0  0  0  0  0  0  0  0  0  0  0
    6.8563   -9.2080   19.4886 H   0  0  0  0  0  0  0  0  0  0  0  0
    7.3739  -10.1376   20.9051 H   0  0  0  0  0  0  0  0  0  0  0  0
    4.9510   -8.2316   20.8869 H   0  0  0  0  0  0  0  0  0  0  0  0
    3.3149  -14.7214   22.5749 H   0  0  0  0  0  0  0  0  0  0  0  0
    0.9435  -15.4188   20.8887 H   0  0  0  0  0  0  0  0  0  0  0  0
   -1.2416  -14.8452   21.0545 H   0  0  0  0  0  0  0  0  0  0  0  0
   -1.2846  -13.1178   25.3043 H   0  0  0  0  0  0  0  0  0  0  0  0
   -2.7269  -13.7721   26.0812 H   0  0  0  0  0  0  0  0  0  0  0  0
   -1.9852  -15.0683   26.7741 H   0  0  0  0  0  0  0  0  0  0  0  0
   -2.4064  -16.3559   25.0032 H   0  0  0  0  0  0  0  0  0  0  0  0
   -2.9772  -15.2829   23.8864 H   0  0  0  0  0  0  0  0  0  0  0  0
    7.8345   -1.3835   19.7401 H   0  0  0  0  0  0  0  0  0  0  0  0
    9.0740   -1.0931   16.5427 H   0  0  0  0  0  0  0  0  0  0  0  0
   11.2889   -3.1714   16.0452 H   0  0  0  0  0  0  0  0  0  0  0  0
   11.8355   -4.8452   18.2706 H   0  0  0  0  0  0  0  0  0  0  0  0
    9.2793   -7.5730   20.4130 H   0  0  0  0  0  0  0  0  0  0  0  0
  1  2  1  0
  2  3  1  0
  3  4  1  0
  4  5  2  0
  4  6  1  0
  6  7  2  0
  7  8  1  0
  8  9  2  0
  9 10  1  0
 10 11  2  0
 11 12  1  0
 12 13  1  0
 13 14  1  0
  2 15  1  0
 15 16  2  0
 16 17  1  0
 17 18  2  0
 18 19  1  0
 19 20  2  0
 20 21  1  0
 21 22  2  0
 22 23  1  0
 11  6  1  0
 14 12  1  0
 23 15  1  0
 22 17  1  0
  1 24  1  0
  1 25  1  0
  1 26  1  0
  2 27  1  0
  7 28  1  0
  8 29  1  0
  9 30  1  0
 12 31  1  0
 13 32  1  0
 13 33  1  0
 14 34  1  0
 14 35  1  0
 18 36  1  0
 19 37  1  0
 20 38  1  0
 21 39  1  0
 23 40  1  0
M  END
>  <Energy>  (957) 
2445.7090020926294

>  <compound_id>  (957) 
6172

>  <target_id>  (957) 
1

>  <reference_id>  (957) 
82

>  <inspiration_ids>  (957) 
[82, 103]

>  <energy_score>  (957) 
2363.3465401290996

>  <distance_score>  (957) 
13.88171355962566

>  <path>  (957) 
/opt/xchem-fragalysis-2/maxwin/BulkDock/SCRATCH/511018/C6172-P82/C6172-P82.minimised.mol

>  <scratch_subdir>  (957) 
/opt/xchem-fragalysis-2/maxwin/BulkDock/SCRATCH/511018/C6172-P82

>  <fragmenstein_runtime>  (957) 
21.084320545196533

>  <fragmenstein_outcome>  (957) 
too moved

>  <fragmenstein_mode>  (957) 
expansion

>  <fragmenstein_error>  (957) 


$$$$
C6172-P103
     RDKit          3D

 40 43  0  0  0  0  0  0  0  0999 V2000
   -2.1884  -14.6087   25.9670 C   0  0  0  0  0  0  0  0  0  0  0  0
   -1.0791  -14.8797   27.5598 C   0  0  0  0  0  0  0  0  0  0  0  0
   -2.3447  -14.9408   28.7763 O   0  0  0  0  0  0  0  0  0  0  0  0
   -3.3573  -16.2346   28.6591 C   0  0  0  0  0  0  0  0  0  0  0  0
   -3.1843  -16.9069   27.6345 O   0  0  0  0  0  0  0  0  0  0  0  0
   -4.5264  -16.9270   29.7552 C   0  0  0  0  0  0  0  0  0  0  0  0
   -5.8266  -16.3986   29.9621 C   0  0  0  0  0  0  0  0  0  0  0  0
   -6.9679  -17.1090   29.5847 C   0  0  0  0  0  0  0  0  0  0  0  0
   -6.7510  -18.3102   28.9606 C   0  0  0  0  0  0  0  0  0  0  0  0
   -5.6306  -18.9968   29.1429 N   0  0  0  0  0  0  0  0  0  0  0  0
   -4.6059  -18.3455   29.7433 C   0  0  0  0  0  0  0  0  0  0  0  0
   -3.7568  -19.2383   30.6587 C   0  0  0  0  0  0  0  0  0  0  0  0
   -4.3903  -19.8717   31.8783 C   0  0  0  0  0  0  0  0  0  0  0  0
   -3.3740  -18.7980   32.0611 C   0  0  0  0  0  0  0  0  0  0  0  0
    0.8969  -14.3372   26.9157 C   0  0  0  0  0  0  0  0  0  0  0  0
    2.3292  -14.6978   27.6359 N   0  0  0  0  0  0  0  0  0  0  0  0
    3.7182  -14.4793   26.8629 C   0  0  0  0  0  0  0  0  0  0  0  0
    5.0934  -14.7402   27.0417 C   0  0  0  0  0  0  0  0  0  0  0  0
    5.9907  -14.5496   25.9453 C   0  0  0  0  0  0  0  0  0  0  0  0
    5.5541  -14.1809   24.6611 C   0  0  0  0  0  0  0  0  0  0  0  0
    4.1986  -13.9402   24.4269 C   0  0  0  0  0  0  0  0  0  0  0  0
    3.3400  -14.0494   25.6046 C   0  0  0  0  0  0  0  0  0  0  0  0
    1.6580  -13.4788   25.9239 N   0  0  0  0  0  0  0  0  0  0  0  0
   -2.5508  -15.4621   25.3780 H   0  0  0  0  0  0  0  0  0  0  0  0
   -2.8805  -13.8135   26.2165 H   0  0  0  0  0  0  0  0  0  0  0  0
   -1.5766  -14.0876   25.2308 H   0  0  0  0  0  0  0  0  0  0  0  0
   -1.2354  -15.9491   27.7610 H   0  0  0  0  0  0  0  0  0  0  0  0
   -6.0239  -15.3404   30.1262 H   0  0  0  0  0  0  0  0  0  0  0  0
   -7.9242  -16.6034   29.5363 H   0  0  0  0  0  0  0  0  0  0  0  0
   -7.4945  -18.7863   28.3352 H   0  0  0  0  0  0  0  0  0  0  0  0
   -3.0653  -19.8921   30.1301 H   0  0  0  0  0  0  0  0  0  0  0  0
   -5.4197  -19.6369   32.1165 H   0  0  0  0  0  0  0  0  0  0  0  0
   -4.1017  -20.8876   32.1189 H   0  0  0  0  0  0  0  0  0  0  0  0
   -2.3992  -19.0897   32.4355 H   0  0  0  0  0  0  0  0  0  0  0  0
   -3.7234  -17.8446   32.4391 H   0  0  0  0  0  0  0  0  0  0  0  0
    5.4578  -15.1164   27.9915 H   0  0  0  0  0  0  0  0  0  0  0  0
    7.0483  -14.7528   26.1063 H   0  0  0  0  0  0  0  0  0  0  0  0
    6.2715  -14.0821   23.8513 H   0  0  0  0  0  0  0  0  0  0  0  0
    3.8078  -13.6048   23.4739 H   0  0  0  0  0  0  0  0  0  0  0  0
    1.2453  -12.9612   25.1674 H   0  0  0  0  0  0  0  0  0  0  0  0
  1  2  1  0
  2  3  1  0
  3  4  1  0
  4  5  2  0
  4  6  1  0
  6  7  2  0
  7  8  1  0
  8  9  2  0
  9 10  1  0
 10 11  2  0
 11 12  1  0
 12 13  1  0
 13 14  1  0
  2 15  1  0
 15 16  2  0
 16 17  1  0
 17 18  2  0
 18 19  1  0
 19 20  2  0
 20 21  1  0
 21 22  2  0
 22 23  1  0
 11  6  1  0
 14 12  1  0
 23 15  1  0
 22 17  1  0
  1 24  1  0
  1 25  1  0
  1 26  1  0
  2 27  1  0
  7 28  1  0
  8 29  1  0
  9 30  1  0
 12 31  1  0
 13 32  1  0
 13 33  1  0
 14 34  1  0
 14 35  1  0
 18 36  1  0
 19 37  1  0
 20 38  1  0
 21 39  1  0
 23 40  1  0
M  END
>  <Energy>  (958) 
570.27929410097931

>  <compound_id>  (958) 
6172

>  <target_id>  (958) 
1

>  <reference_id>  (958) 
103

>  <inspiration_ids>  (958) 
[82, 103]

>  <energy_score>  (958) 
487.9168321374584

>  <distance_score>  (958) 
17.02165662032262

>  <path>  (958) 
/opt/xchem-fragalysis-2/maxwin/BulkDock/SCRATCH/511018/C6172-P103/C6172-P103.minimised.mol

>  <scratch_subdir>  (958) 
/opt/xchem-fragalysis-2/maxwin/BulkDock/SCRATCH/511018/C6172-P103

>  <fragmenstein_runtime>  (958) 
25.396023273468018

>  <fragmenstein_outcome>  (958) 
too moved

>  <fragmenstein_mode>  (958) 
expansion

>  <fragmenstein_error>  (958) 


$$$$
C6173-P82
     RDKit          3D

 41 44  0  0  0  0  0  0  0  0999 V2000
    3.8726   -6.8001   22.4993 O   0  0  0  0  0  0  0  0  0  0  0  0
    3.5631   -5.7860   23.0622 C   0  0  0  0  0  0  0  0  0  0  0  0
    4.2208   -4.4708   23.0938 N   0  0  0  0  0  0  0  0  0  0  0  0
    5.5357   -4.0127   22.5148 C   0  0  0  0  0  0  0  0  0  0  0  0
    5.8521   -2.5302   21.9951 C   0  0  0  0  0  0  0  0  0  0  0  0
    7.2182   -2.4545   21.2358 C   0  0  0  0  0  0  0  0  0  0  0  0
    8.0453   -3.5010   21.2833 N   0  0  0  0  0  0  0  0  0  0  0  0
    8.7164   -3.6256   20.0888 C   0  0  0  0  0  0  0  0  0  0  0  0
    9.7600   -5.1607   19.4773 C   0  0  0  0  0  0  0  0  0  0  0  0
   10.7796   -4.6419   17.8125 C   0  0  0  0  0  0  0  0  0  0  0  0
   10.5696   -3.0378   16.7978 C   0  0  0  0  0  0  0  0  0  0  0  0
    9.0683   -1.8530   17.1743 C   0  0  0  0  0  0  0  0  0  0  0  0
    8.4149   -1.9281   19.2001 C   0  0  0  0  0  0  0  0  0  0  0  0
    7.5609   -1.3888   20.2843 N   0  0  0  0  0  0  0  0  0  0  0  0
    2.3191   -6.0319   23.9501 C   0  0  0  0  0  0  0  0  0  0  0  0
    2.4003   -6.0082   25.3547 C   0  0  0  0  0  0  0  0  0  0  0  0
    1.3408   -6.4705   26.1671 C   0  0  0  0  0  0  0  0  0  0  0  0
    0.2036   -6.9557   25.5597 C   0  0  0  0  0  0  0  0  0  0  0  0
    0.0946   -7.0503   24.2245 N   0  0  0  0  0  0  0  0  0  0  0  0
    1.1400   -6.6257   23.4209 C   0  0  0  0  0  0  0  0  0  0  0  0
    0.9591   -6.8259   21.9276 C   0  0  0  0  0  0  0  0  0  0  0  0
   -0.3880   -6.5797   21.2855 C   0  0  0  0  0  0  0  0  0  0  0  0
    0.7449   -5.6351   21.0206 C   0  0  0  0  0  0  0  0  0  0  0  0
    3.7252   -3.8680   23.7393 H   0  0  0  0  0  0  0  0  0  0  0  0
    6.2752   -4.2591   23.2869 H   0  0  0  0  0  0  0  0  0  0  0  0
    5.7222   -4.7082   21.6865 H   0  0  0  0  0  0  0  0  0  0  0  0
    5.8738   -1.8414   22.8456 H   0  0  0  0  0  0  0  0  0  0  0  0
    5.0540   -2.2185   21.3127 H   0  0  0  0  0  0  0  0  0  0  0  0
   10.1714   -5.7054   20.3309 H   0  0  0  0  0  0  0  0  0  0  0  0
   11.8793   -4.8078   17.7938 H   0  0  0  0  0  0  0  0  0  0  0  0
   11.2069   -2.8525   15.9333 H   0  0  0  0  0  0  0  0  0  0  0  0
    8.8471   -0.9329   16.5823 H   0  0  0  0  0  0  0  0  0  0  0  0
    6.9471   -0.6068   20.1283 H   0  0  0  0  0  0  0  0  0  0  0  0
    3.3167   -5.6617   25.8276 H   0  0  0  0  0  0  0  0  0  0  0  0
    1.4189   -6.4317   27.2480 H   0  0  0  0  0  0  0  0  0  0  0  0
   -0.6589   -7.2912   26.1224 H   0  0  0  0  0  0  0  0  0  0  0  0
    1.5193   -7.6642   21.5161 H   0  0  0  0  0  0  0  0  0  0  0  0
   -1.2044   -6.2509   21.9195 H   0  0  0  0  0  0  0  0  0  0  0  0
   -0.6926   -7.2601   20.4987 H   0  0  0  0  0  0  0  0  0  0  0  0
    0.6828   -4.6462   21.4576 H   0  0  0  0  0  0  0  0  0  0  0  0
    1.2138   -5.6643   20.0439 H   0  0  0  0  0  0  0  0  0  0  0  0
  1  2  2  0
  2  3  1  0
  3  4  1  0
  4  5  1  0
  5  6  1  0
  6  7  2  0
  7  8  1  0
  8  9  2  0
  9 10  1  0
 10 11  2  0
 11 12  1  0
 12 13  2  0
 13 14  1  0
  2 15  1  0
 15 16  2  0
 16 17  1  0
 17 18  2  0
 18 19  1  0
 19 20  2  0
 20 21  1  0
 21 22  1  0
 22 23  1  0
 14  6  1  0
 20 15  1  0
 23 21  1  0
 13  8  1  0
  3 24  1  0
  4 25  1  0
  4 26  1  0
  5 27  1  0
  5 28  1  0
  9 29  1  0
 10 30  1  0
 11 31  1  0
 12 32  1  0
 14 33  1  0
 16 34  1  0
 17 35  1  0
 18 36  1  0
 21 37  1  0
 22 38  1  0
 22 39  1  0
 23 40  1  0
 23 41  1  0
M  END
>  <Energy>  (959) 
766.6803727480825

>  <compound_id>  (959) 
6173

>  <target_id>  (959) 
1

>  <reference_id>  (959) 
82

>  <inspiration_ids>  (959) 
[82, 103]

>  <energy_score>  (959) 
696.4235580230775

>  <distance_score>  (959) 
16.87334083124237

>  <path>  (959) 
/opt/xchem-fragalysis-2/maxwin/BulkDock/SCRATCH/511018/C6173-P82/C6173-P82.minimised.mol

>  <scratch_subdir>  (959) 
/opt/xchem-fragalysis-2/maxwin/BulkDock/SCRATCH/511018/C6173-P82

>  <fragmenstein_runtime>  (959) 
22.933159112930298

>  <fragmenstein_outcome>  (959) 
too moved

>  <fragmenstein_mode>  (959) 
expansion

>  <fragmenstein_error>  (959) 


$$$$
C6173-P103
     RDKit          3D

 41 44  0  0  0  0  0  0  0  0999 V2000
    0.4204  -14.4068   24.5274 O   0  0  0  0  0  0  0  0  0  0  0  0
   -0.4926  -14.1681   23.9160 C   0  0  0  0  0  0  0  0  0  0  0  0
   -0.0953  -12.7168   22.7222 N   0  0  0  0  0  0  0  0  0  0  0  0
    1.4048  -11.6170   22.5169 C   0  0  0  0  0  0  0  0  0  0  0  0
    2.6076  -11.0710   21.2527 C   0  0  0  0  0  0  0  0  0  0  0  0
    3.6032   -9.8318   21.3234 C   0  0  0  0  0  0  0  0  0  0  0  0
    3.3870   -8.5998   20.8596 N   0  0  0  0  0  0  0  0  0  0  0  0
    4.6097   -7.9512   20.7983 C   0  0  0  0  0  0  0  0  0  0  0  0
    4.9345   -6.6439   20.3849 C   0  0  0  0  0  0  0  0  0  0  0  0
    6.2677   -6.2122   20.4565 C   0  0  0  0  0  0  0  0  0  0  0  0
    7.2699   -7.0765   20.9006 C   0  0  0  0  0  0  0  0  0  0  0  0
    6.9733   -8.3976   21.2709 C   0  0  0  0  0  0  0  0  0  0  0  0
    5.6260   -8.7931   21.2240 C   0  0  0  0  0  0  0  0  0  0  0  0
    4.9727   -9.9734   21.5342 N   0  0  0  0  0  0  0  0  0  0  0  0
   -2.0437  -15.3169   24.5843 C   0  0  0  0  0  0  0  0  0  0  0  0
   -2.3018  -14.6036   25.7588 C   0  0  0  0  0  0  0  0  0  0  0  0
   -2.2598  -15.1985   27.3354 C   0  0  0  0  0  0  0  0  0  0  0  0
   -2.7941  -16.3796   27.7355 C   0  0  0  0  0  0  0  0  0  0  0  0
   -2.7999  -17.3029   26.8685 N   0  0  0  0  0  0  0  0  0  0  0  0
   -2.4354  -16.9705   25.3818 C   0  0  0  0  0  0  0  0  0  0  0  0
   -1.4520  -18.4965   25.9326 C   0  0  0  0  0  0  0  0  0  0  0  0
   -1.2934  -19.9377   25.4000 C   0  0  0  0  0  0  0  0  0  0  0  0
   -2.2765  -19.7070   26.4754 C   0  0  0  0  0  0  0  0  0  0  0  0
   -0.9036  -12.4662   22.2728 H   0  0  0  0  0  0  0  0  0  0  0  0
    0.6025  -10.8923   22.2159 H   0  0  0  0  0  0  0  0  0  0  0  0
    1.9660  -11.8447   23.4408 H   0  0  0  0  0  0  0  0  0  0  0  0
    1.9964  -10.7797   20.3865 H   0  0  0  0  0  0  0  0  0  0  0  0
    3.2388  -11.9380   21.0185 H   0  0  0  0  0  0  0  0  0  0  0  0
    4.1440   -5.9802   20.0513 H   0  0  0  0  0  0  0  0  0  0  0  0
    6.5013   -5.1856   20.1933 H   0  0  0  0  0  0  0  0  0  0  0  0
    8.2966   -6.7238   20.9790 H   0  0  0  0  0  0  0  0  0  0  0  0
    7.7504   -9.0725   21.6145 H   0  0  0  0  0  0  0  0  0  0  0  0
    5.4187  -10.8373   21.8031 H   0  0  0  0  0  0  0  0  0  0  0  0
   -2.3582  -13.5159   25.6543 H   0  0  0  0  0  0  0  0  0  0  0  0
   -2.0878  -14.5885   28.2006 H   0  0  0  0  0  0  0  0  0  0  0  0
   -3.3982  -16.4778   28.6268 H   0  0  0  0  0  0  0  0  0  0  0  0
   -0.6717  -18.1976   26.6396 H   0  0  0  0  0  0  0  0  0  0  0  0
   -1.6626  -20.2948   24.4492 H   0  0  0  0  0  0  0  0  0  0  0  0
   -0.3731  -20.4531   25.6710 H   0  0  0  0  0  0  0  0  0  0  0  0
   -3.3237  -19.8011   26.2282 H   0  0  0  0  0  0  0  0  0  0  0  0
   -2.0428  -20.0401   27.4810 H   0  0  0  0  0  0  0  0  0  0  0  0
  1  2  2  0
  2  3  1  0
  3  4  1  0
  4  5  1  0
  5  6  1  0
  6  7  2  0
  7  8  1  0
  8  9  2  0
  9 10  1  0
 10 11  2  0
 11 12  1  0
 12 13  2  0
 13 14  1  0
  2 15  1  0
 15 16  2  0
 16 17  1  0
 17 18  2  0
 18 19  1  0
 19 20  2  0
 20 21  1  0
 21 22  1  0
 22 23  1  0
 14  6  1  0
 20 15  1  0
 23 21  1  0
 13  8  1  0
  3 24  1  0
  4 25  1  0
  4 26  1  0
  5 27  1  0
  5 28  1  0
  9 29  1  0
 10 30  1  0
 11 31  1  0
 12 32  1  0
 14 33  1  0
 16 34  1  0
 17 35  1  0
 18 36  1  0
 21 37  1  0
 22 38  1  0
 22 39  1  0
 23 40  1  0
 23 41  1  0
M  END
>  <Energy>  (960) 
676.15611871316446

>  <compound_id>  (960) 
6173

>  <target_id>  (960) 
1

>  <reference_id>  (960) 
103

>  <inspiration_ids>  (960) 
[82, 103]

>  <energy_score>  (960) 
605.8993039881668

>  <distance_score>  (960) 
13.862272435243344

>  <path>  (960) 
/opt/xchem-fragalysis-2/maxwin/BulkDock/SCRATCH/511018/C6173-P103/C6173-P103.minimised.mol

>  <scratch_subdir>  (960) 
/opt/xchem-fragalysis-2/maxwin/BulkDock/SCRATCH/511018/C6173-P103

>  <fragmenstein_runtime>  (960) 
22.54615569114685

>  <fragmenstein_outcome>  (960) 
too moved

>  <fragmenstein_mode>  (960) 
expansion

>  <fragmenstein_error>  (960) 


$$$$
C6175-P82
     RDKit          3D

 35 38  0  0  0  0  0  0  0  0999 V2000
   -1.9532  -11.8465   25.8511 O   0  0  0  0  0  0  0  0  0  0  0  0
   -2.8647  -12.4351   25.6340 C   0  0  0  0  0  0  0  0  0  0  0  0
   -3.8765  -11.6512   24.3332 N   0  0  0  0  0  0  0  0  0  0  0  0
   -3.5920  -10.1558   23.2432 C   0  0  0  0  0  0  0  0  0  0  0  0
   -3.7564  -10.1043   21.8448 N   0  0  0  0  0  0  0  0  0  0  0  0
   -2.7169   -9.4051   21.1688 C   0  0  0  0  0  0  0  0  0  0  0  0
   -2.3660   -9.2430   19.8087 C   0  0  0  0  0  0  0  0  0  0  0  0
   -1.1979   -8.5198   19.4579 C   0  0  0  0  0  0  0  0  0  0  0  0
   -0.3940   -7.9396   20.4397 C   0  0  0  0  0  0  0  0  0  0  0  0
   -0.7442   -8.0623   21.7888 C   0  0  0  0  0  0  0  0  0  0  0  0
   -1.8985   -8.8190   22.0869 C   0  0  0  0  0  0  0  0  0  0  0  0
   -2.5270   -9.1632   23.2626 N   0  0  0  0  0  0  0  0  0  0  0  0
   -2.8052  -14.1027   26.6516 C   0  0  0  0  0  0  0  0  0  0  0  0
   -2.8585  -15.1971   28.3884 C   0  0  0  0  0  0  0  0  0  0  0  0
   -3.8445  -16.5737   28.4961 C   0  0  0  0  0  0  0  0  0  0  0  0
   -4.5884  -17.2248   29.5904 C   0  0  0  0  0  0  0  0  0  0  0  0
   -4.0055  -17.0505   30.7841 C   0  0  0  0  0  0  0  0  0  0  0  0
   -2.9962  -16.0079   30.7378 C   0  0  0  0  0  0  0  0  0  0  0  0
   -2.5395  -14.9465   29.6527 N   0  0  0  0  0  0  0  0  0  0  0  0
   -1.9012  -15.2261   26.8848 C   0  0  0  0  0  0  0  0  0  0  0  0
   -2.1454  -14.8710   25.4719 C   0  0  0  0  0  0  0  0  0  0  0  0
   -4.6427  -12.2719   24.1198 H   0  0  0  0  0  0  0  0  0  0  0  0
   -2.9845   -9.7021   19.0454 H   0  0  0  0  0  0  0  0  0  0  0  0
   -0.9297   -8.4229   18.4092 H   0  0  0  0  0  0  0  0  0  0  0  0
    0.5021   -7.3923   20.1629 H   0  0  0  0  0  0  0  0  0  0  0  0
   -0.1351   -7.6307   22.5768 H   0  0  0  0  0  0  0  0  0  0  0  0
   -2.3621   -8.6512   24.1063 H   0  0  0  0  0  0  0  0  0  0  0  0
   -3.7998  -17.2019   27.6143 H   0  0  0  0  0  0  0  0  0  0  0  0
   -5.2765  -18.0436   29.4051 H   0  0  0  0  0  0  0  0  0  0  0  0
   -4.2071  -17.6277   31.6743 H   0  0  0  0  0  0  0  0  0  0  0  0
   -2.3957  -15.9072   31.6616 H   0  0  0  0  0  0  0  0  0  0  0  0
   -1.0943  -15.0019   27.6084 H   0  0  0  0  0  0  0  0  0  0  0  0
   -2.1386  -16.3265   27.0419 H   0  0  0  0  0  0  0  0  0  0  0  0
   -2.6820  -15.5642   24.8674 H   0  0  0  0  0  0  0  0  0  0  0  0
   -1.3353  -14.4186   24.9304 H   0  0  0  0  0  0  0  0  0  0  0  0
  1  2  2  0
  2  3  1  0
  3  4  1  0
  4  5  2  0
  5  6  1  0
  6  7  2  0
  7  8  1  0
  8  9  2  0
  9 10  1  0
 10 11  2  0
 11 12  1  0
  2 13  1  0
 13 14  1  0
 14 15  2  0
 15 16  1  0
 16 17  2  0
 17 18  1  0
 18 19  2  0
 13 20  1  0
 20 21  1  0
 12  4  1  0
 21 13  1  0
 11  6  1  0
 19 14  1  0
  3 22  1  0
  7 23  1  0
  8 24  1  0
  9 25  1  0
 10 26  1  0
 12 27  1  0
 15 28  1  0
 16 29  1  0
 17 30  1  0
 18 31  1  0
 20 32  1  0
 20 33  1  0
 21 34  1  0
 21 35  1  0
M  END
>  <Energy>  (961) 
606.43066013200735

>  <compound_id>  (961) 
6175

>  <target_id>  (961) 
1

>  <reference_id>  (961) 
82

>  <inspiration_ids>  (961) 
[82, 103]

>  <energy_score>  (961) 
547.2083565872206

>  <distance_score>  (961) 
16.64956491110695

>  <path>  (961) 
/opt/xchem-fragalysis-2/maxwin/BulkDock/SCRATCH/511018/C6175-P82/C6175-P82.minimised.mol

>  <scratch_subdir>  (961) 
/opt/xchem-fragalysis-2/maxwin/BulkDock/SCRATCH/511018/C6175-P82

>  <fragmenstein_runtime>  (961) 
16.619606256484985

>  <fragmenstein_outcome>  (961) 
too moved

>  <fragmenstein_mode>  (961) 
expansion

>  <fragmenstein_error>  (961) 


$$$$
C6175-P103
     RDKit          3D

 35 38  0  0  0  0  0  0  0  0999 V2000
    4.6644  -15.9652   23.3030 O   0  0  0  0  0  0  0  0  0  0  0  0
    5.4539  -15.7799   24.1835 C   0  0  0  0  0  0  0  0  0  0  0  0
    6.4169  -14.6760   24.3976 N   0  0  0  0  0  0  0  0  0  0  0  0
    6.7520  -13.5710   23.5839 C   0  0  0  0  0  0  0  0  0  0  0  0
    6.2706  -13.1624   22.4194 N   0  0  0  0  0  0  0  0  0  0  0  0
    7.0108  -12.0528   22.0039 C   0  0  0  0  0  0  0  0  0  0  0  0
    6.9322  -11.2652   20.8335 C   0  0  0  0  0  0  0  0  0  0  0  0
    7.8369  -10.2047   20.6431 C   0  0  0  0  0  0  0  0  0  0  0  0
    8.8041   -9.9197   21.6072 C   0  0  0  0  0  0  0  0  0  0  0  0
    8.8925  -10.6814   22.7849 C   0  0  0  0  0  0  0  0  0  0  0  0
    7.9781  -11.7406   22.9464 C   0  0  0  0  0  0  0  0  0  0  0  0
    7.7812  -12.6899   23.9361 N   0  0  0  0  0  0  0  0  0  0  0  0
    5.5580  -17.0135   25.2764 C   0  0  0  0  0  0  0  0  0  0  0  0
    4.2336  -17.8299   25.8960 C   0  0  0  0  0  0  0  0  0  0  0  0
    3.7762  -17.6114   27.2105 C   0  0  0  0  0  0  0  0  0  0  0  0
    2.7338  -18.3774   27.7844 C   0  0  0  0  0  0  0  0  0  0  0  0
    2.1516  -19.3976   27.0541 C   0  0  0  0  0  0  0  0  0  0  0  0
    2.6464  -19.5953   25.7792 C   0  0  0  0  0  0  0  0  0  0  0  0
    3.6497  -18.8563   25.2050 N   0  0  0  0  0  0  0  0  0  0  0  0
    6.6803  -18.0034   24.8763 C   0  0  0  0  0  0  0  0  0  0  0  0
    6.8451  -17.1788   26.1094 C   0  0  0  0  0  0  0  0  0  0  0  0
    6.8680  -14.7994   25.2867 H   0  0  0  0  0  0  0  0  0  0  0  0
    6.1816  -11.5028   20.0858 H   0  0  0  0  0  0  0  0  0  0  0  0
    7.7807   -9.6168   19.7318 H   0  0  0  0  0  0  0  0  0  0  0  0
    9.5024   -9.1018   21.4453 H   0  0  0  0  0  0  0  0  0  0  0  0
    9.6484  -10.4652   23.5328 H   0  0  0  0  0  0  0  0  0  0  0  0
    8.3409  -12.7758   24.7676 H   0  0  0  0  0  0  0  0  0  0  0  0
    4.2570  -16.8361   27.7991 H   0  0  0  0  0  0  0  0  0  0  0  0
    2.4095  -18.1812   28.8018 H   0  0  0  0  0  0  0  0  0  0  0  0
    1.3593  -20.0148   27.4571 H   0  0  0  0  0  0  0  0  0  0  0  0
    2.2507  -20.3800   25.1396 H   0  0  0  0  0  0  0  0  0  0  0  0
    7.2737  -17.7640   24.0002 H   0  0  0  0  0  0  0  0  0  0  0  0
    6.4809  -19.0650   24.9801 H   0  0  0  0  0  0  0  0  0  0  0  0
    6.7788  -17.6972   27.0616 H   0  0  0  0  0  0  0  0  0  0  0  0
    7.6419  -16.4491   26.0932 H   0  0  0  0  0  0  0  0  0  0  0  0
  1  2  2  0
  2  3  1  0
  3  4  1  0
  4  5  2  0
  5  6  1  0
  6  7  2  0
  7  8  1  0
  8  9  2  0
  9 10  1  0
 10 11  2  0
 11 12  1  0
  2 13  1  0
 13 14  1  0
 14 15  2  0
 15 16  1  0
 16 17  2  0
 17 18  1  0
 18 19  2  0
 13 20  1  0
 20 21  1  0
 12  4  1  0
 21 13  1  0
 11  6  1  0
 19 14  1  0
  3 22  1  0
  7 23  1  0
  8 24  1  0
  9 25  1  0
 10 26  1  0
 12 27  1  0
 15 28  1  0
 16 29  1  0
 17 30  1  0
 18 31  1  0
 20 32  1  0
 20 33  1  0
 21 34  1  0
 21 35  1  0
M  END
>  <Energy>  (962) 
55.827623836868099

>  <compound_id>  (962) 
6175

>  <target_id>  (962) 
1

>  <reference_id>  (962) 
103

>  <inspiration_ids>  (962) 
[82, 103]

>  <energy_score>  (962) 
-3.3946797079167936

>  <distance_score>  (962) 
16.002505448368023

>  <path>  (962) 
/opt/xchem-fragalysis-2/maxwin/BulkDock/SCRATCH/511018/C6175-P103/C6175-P103.minimised.mol

>  <scratch_subdir>  (962) 
/opt/xchem-fragalysis-2/maxwin/BulkDock/SCRATCH/511018/C6175-P103

>  <fragmenstein_runtime>  (962) 
33.19172811508179

>  <fragmenstein_outcome>  (962) 
too moved

>  <fragmenstein_mode>  (962) 
expansion

>  <fragmenstein_error>  (962) 


$$$$
C6176-P82
     RDKit          3D

 39 42  0  0  0  0  0  0  0  0999 V2000
    6.7826  -11.6691   21.4947 C   0  0  0  0  0  0  0  0  0  0  0  0
    5.2381  -12.4153   20.8602 C   0  0  0  0  0  0  0  0  0  0  0  0
    3.7116  -12.4236   22.0993 N   0  0  0  0  0  0  0  0  0  0  0  0
    3.3021  -13.2811   23.6884 C   0  0  0  0  0  0  0  0  0  0  0  0
    2.1808  -12.8337   24.3301 C   0  0  0  0  0  0  0  0  0  0  0  0
    1.6606  -13.2268   25.9003 C   0  0  0  0  0  0  0  0  0  0  0  0
    2.5259  -13.9097   26.9184 C   0  0  0  0  0  0  0  0  0  0  0  0
    3.8582  -14.3731   26.2094 C   0  0  0  0  0  0  0  0  0  0  0  0
    4.9367  -15.1193   26.9714 C   0  0  0  0  0  0  0  0  0  0  0  0
    5.6042  -14.5029   28.1773 C   0  0  0  0  0  0  0  0  0  0  0  0
    6.3660  -14.6372   26.8926 C   0  0  0  0  0  0  0  0  0  0  0  0
    4.0415  -14.1838   24.6765 N   0  0  0  0  0  0  0  0  0  0  0  0
    5.8493  -12.4383   19.2822 C   0  0  0  0  0  0  0  0  0  0  0  0
    7.1776  -12.5567   19.0859 N   0  0  0  0  0  0  0  0  0  0  0  0
    7.4866  -11.9994   17.8700 C   0  0  0  0  0  0  0  0  0  0  0  0
    8.7301  -11.6922   17.2903 C   0  0  0  0  0  0  0  0  0  0  0  0
    8.7589  -11.1004   16.0212 C   0  0  0  0  0  0  0  0  0  0  0  0
    7.5679  -10.8048   15.3553 C   0  0  0  0  0  0  0  0  0  0  0  0
    6.3199  -11.0854   15.9342 C   0  0  0  0  0  0  0  0  0  0  0  0
    6.3237  -11.7080   17.1886 C   0  0  0  0  0  0  0  0  0  0  0  0
    5.3164  -12.1563   18.0349 N   0  0  0  0  0  0  0  0  0  0  0  0
    7.4842  -12.4938   21.6854 H   0  0  0  0  0  0  0  0  0  0  0  0
    6.6684  -11.1097   22.4256 H   0  0  0  0  0  0  0  0  0  0  0  0
    7.3247  -11.0475   20.7774 H   0  0  0  0  0  0  0  0  0  0  0  0
    5.4106  -13.4923   20.8629 H   0  0  0  0  0  0  0  0  0  0  0  0
    3.0622  -13.0538   21.5979 H   0  0  0  0  0  0  0  0  0  0  0  0
    1.7859  -11.9540   23.8588 H   0  0  0  0  0  0  0  0  0  0  0  0
    1.0906  -12.3698   26.2574 H   0  0  0  0  0  0  0  0  0  0  0  0
    2.3463  -13.9817   27.9788 H   0  0  0  0  0  0  0  0  0  0  0  0
    4.8063  -16.1980   26.9892 H   0  0  0  0  0  0  0  0  0  0  0  0
    5.3172  -13.5061   28.4878 H   0  0  0  0  0  0  0  0  0  0  0  0
    5.8724  -15.1611   28.9956 H   0  0  0  0  0  0  0  0  0  0  0  0
    6.5711  -13.7414   26.3164 H   0  0  0  0  0  0  0  0  0  0  0  0
    7.1446  -15.3880   26.8285 H   0  0  0  0  0  0  0  0  0  0  0  0
    9.6461  -11.9143   17.8249 H   0  0  0  0  0  0  0  0  0  0  0  0
    9.7130  -10.8496   15.5651 H   0  0  0  0  0  0  0  0  0  0  0  0
    7.6083  -10.3238   14.3805 H   0  0  0  0  0  0  0  0  0  0  0  0
    5.3959  -10.8455   15.4207 H   0  0  0  0  0  0  0  0  0  0  0  0
    4.3536  -11.8818   17.9260 H   0  0  0  0  0  0  0  0  0  0  0  0
  1  2  1  0
  2  3  1  0
  3  4  1  0
  4  5  2  0
  5  6  1  0
  6  7  2  0
  7  8  1  0
  8  9  1  0
  9 10  1  0
 10 11  1  0
  8 12  2  0
  2 13  1  0
 13 14  2  0
 14 15  1  0
 15 16  2  0
 16 17  1  0
 17 18  2  0
 18 19  1  0
 19 20  2  0
 20 21  1  0
 12  4  1  0
 21 13  1  0
 11  9  1  0
 20 15  1  0
  1 22  1  0
  1 23  1  0
  1 24  1  0
  2 25  1  0
  3 26  1  0
  5 27  1  0
  6 28  1  0
  7 29  1  0
  9 30  1  0
 10 31  1  0
 10 32  1  0
 11 33  1  0
 11 34  1  0
 16 35  1  0
 17 36  1  0
 18 37  1  0
 19 38  1  0
 21 39  1  0
M  END
>  <Energy>  (963) 
338.46115792509522

>  <compound_id>  (963) 
6176

>  <target_id>  (963) 
1

>  <reference_id>  (963) 
82

>  <inspiration_ids>  (963) 
[82, 103]

>  <energy_score>  (963) 
303.23160932626683

>  <distance_score>  (963) 
16.19361556773654

>  <path>  (963) 
/opt/xchem-fragalysis-2/maxwin/BulkDock/SCRATCH/511018/C6176-P82/C6176-P82.minimised.mol

>  <scratch_subdir>  (963) 
/opt/xchem-fragalysis-2/maxwin/BulkDock/SCRATCH/511018/C6176-P82

>  <fragmenstein_runtime>  (963) 
14.898475885391235

>  <fragmenstein_outcome>  (963) 
too moved

>  <fragmenstein_mode>  (963) 
expansion

>  <fragmenstein_error>  (963) 


$$$$
C6176-P103
     RDKit          3D

 39 42  0  0  0  0  0  0  0  0999 V2000
    1.3448   -3.6433   20.7542 C   0  0  0  0  0  0  0  0  0  0  0  0
    1.4866   -2.8031   22.0226 C   0  0  0  0  0  0  0  0  0  0  0  0
    1.1673   -3.5331   23.3100 N   0  0  0  0  0  0  0  0  0  0  0  0
    0.3238   -4.5709   23.7145 C   0  0  0  0  0  0  0  0  0  0  0  0
   -0.0623   -5.6768   22.9727 C   0  0  0  0  0  0  0  0  0  0  0  0
   -0.6966   -6.7588   23.5972 C   0  0  0  0  0  0  0  0  0  0  0  0
   -0.9436   -6.7185   24.9647 C   0  0  0  0  0  0  0  0  0  0  0  0
   -0.6477   -5.5626   25.6578 C   0  0  0  0  0  0  0  0  0  0  0  0
   -0.9340   -5.4492   27.1355 C   0  0  0  0  0  0  0  0  0  0  0  0
   -1.5473   -4.1845   27.6910 C   0  0  0  0  0  0  0  0  0  0  0  0
   -2.3614   -5.4420   27.6350 C   0  0  0  0  0  0  0  0  0  0  0  0
   -0.0273   -4.5163   25.0313 N   0  0  0  0  0  0  0  0  0  0  0  0
    2.8399   -2.0634   21.9028 C   0  0  0  0  0  0  0  0  0  0  0  0
    3.4205   -1.7054   20.7650 N   0  0  0  0  0  0  0  0  0  0  0  0
    4.6885   -1.3277   21.0882 C   0  0  0  0  0  0  0  0  0  0  0  0
    5.7625   -1.0566   20.2481 C   0  0  0  0  0  0  0  0  0  0  0  0
    7.0087   -0.8262   20.8316 C   0  0  0  0  0  0  0  0  0  0  0  0
    7.1723   -0.7711   22.2133 C   0  0  0  0  0  0  0  0  0  0  0  0
    6.0890   -0.9894   23.0664 C   0  0  0  0  0  0  0  0  0  0  0  0
    4.8653   -1.2938   22.4614 C   0  0  0  0  0  0  0  0  0  0  0  0
    3.6432   -1.6962   22.9611 N   0  0  0  0  0  0  0  0  0  0  0  0
    2.0448   -4.4794   20.7295 H   0  0  0  0  0  0  0  0  0  0  0  0
    1.5110   -3.0496   19.8474 H   0  0  0  0  0  0  0  0  0  0  0  0
    0.3291   -4.0390   20.6631 H   0  0  0  0  0  0  0  0  0  0  0  0
    0.7286   -2.0106   21.9577 H   0  0  0  0  0  0  0  0  0  0  0  0
    1.1535   -2.8976   24.1030 H   0  0  0  0  0  0  0  0  0  0  0  0
    0.2030   -5.7747   21.9281 H   0  0  0  0  0  0  0  0  0  0  0  0
   -0.9300   -7.6379   23.0048 H   0  0  0  0  0  0  0  0  0  0  0  0
   -1.3256   -7.5746   25.4979 H   0  0  0  0  0  0  0  0  0  0  0  0
   -0.1983   -5.9313   27.7738 H   0  0  0  0  0  0  0  0  0  0  0  0
   -1.7901   -3.3856   26.9985 H   0  0  0  0  0  0  0  0  0  0  0  0
   -1.1999   -3.8391   28.6574 H   0  0  0  0  0  0  0  0  0  0  0  0
   -2.5740   -5.9486   28.5692 H   0  0  0  0  0  0  0  0  0  0  0  0
   -3.1726   -5.4736   26.9169 H   0  0  0  0  0  0  0  0  0  0  0  0
    5.6180   -1.1214   19.1772 H   0  0  0  0  0  0  0  0  0  0  0  0
    7.8641   -0.7411   20.1862 H   0  0  0  0  0  0  0  0  0  0  0  0
    8.1509   -0.5744   22.6449 H   0  0  0  0  0  0  0  0  0  0  0  0
    6.2077   -0.9775   24.1446 H   0  0  0  0  0  0  0  0  0  0  0  0
    3.4328   -1.8830   23.9300 H   0  0  0  0  0  0  0  0  0  0  0  0
  1  2  1  0
  2  3  1  0
  3  4  1  0
  4  5  2  0
  5  6  1  0
  6  7  2  0
  7  8  1  0
  8  9  1  0
  9 10  1  0
 10 11  1  0
  8 12  2  0
  2 13  1  0
 13 14  2  0
 14 15  1  0
 15 16  2  0
 16 17  1  0
 17 18  2  0
 18 19  1  0
 19 20  2  0
 20 21  1  0
 12  4  1  0
 21 13  1  0
 11  9  1  0
 20 15  1  0
  1 22  1  0
  1 23  1  0
  1 24  1  0
  2 25  1  0
  3 26  1  0
  5 27  1  0
  6 28  1  0
  7 29  1  0
  9 30  1  0
 10 31  1  0
 10 32  1  0
 11 33  1  0
 11 34  1  0
 16 35  1  0
 17 36  1  0
 18 37  1  0
 19 38  1  0
 21 39  1  0
M  END
>  <Energy>  (964) 
19.078843593280453

>  <compound_id>  (964) 
6176

>  <target_id>  (964) 
1

>  <reference_id>  (964) 
103

>  <inspiration_ids>  (964) 
[82, 103]

>  <energy_score>  (964) 
-16.15070500554316

>  <distance_score>  (964) 
17.00014198667561

>  <path>  (964) 
/opt/xchem-fragalysis-2/maxwin/BulkDock/SCRATCH/511018/C6176-P103/C6176-P103.minimised.mol

>  <scratch_subdir>  (964) 
/opt/xchem-fragalysis-2/maxwin/BulkDock/SCRATCH/511018/C6176-P103

>  <fragmenstein_runtime>  (964) 
15.84671139717102

>  <fragmenstein_outcome>  (964) 
too moved

>  <fragmenstein_mode>  (964) 
expansion

>  <fragmenstein_error>  (964) 


$$$$
C6177-P82
     RDKit          3D

 49 51  0  0  0  0  0  0  0  0999 V2000
   -4.2853   -8.1318   18.3092 C   0  0  0  0  0  0  0  0  0  0  0  0
   -2.9717   -8.2277   17.5355 C   0  0  0  0  0  0  0  0  0  0  0  0
   -2.5480   -6.8551   17.0095 C   0  0  0  0  0  0  0  0  0  0  0  0
   -1.8486   -8.9311   18.3363 C   0  0  0  0  0  0  0  0  0  0  0  0
   -1.4050   -8.2564   19.6564 C   0  0  0  0  0  0  0  0  0  0  0  0
   -2.2046   -8.8370   20.9877 N   0  0  0  0  0  0  0  0  0  0  0  0
   -2.5817  -10.2651   21.3851 C   0  0  0  0  0  0  0  0  0  0  0  0
   -2.3105  -11.3193   20.8612 O   0  0  0  0  0  0  0  0  0  0  0  0
   -3.7665  -10.2962   22.8653 C   0  0  0  0  0  0  0  0  0  0  0  0
   -4.9451  -10.0151   21.5946 C   0  0  0  0  0  0  0  0  0  0  0  0
   -4.2282  -11.7048   24.3081 C   0  0  0  0  0  0  0  0  0  0  0  0
   -5.6642  -12.4161   24.2883 C   0  0  0  0  0  0  0  0  0  0  0  0
   -6.0785  -13.4994   25.0913 C   0  0  0  0  0  0  0  0  0  0  0  0
   -5.1675  -14.0329   25.9662 C   0  0  0  0  0  0  0  0  0  0  0  0
   -3.8932  -13.4784   25.9677 C   0  0  0  0  0  0  0  0  0  0  0  0
   -3.3943  -12.4090   25.1985 N   0  0  0  0  0  0  0  0  0  0  0  0
    0.0751   -7.5207   19.3642 C   0  0  0  0  0  0  0  0  0  0  0  0
    1.0224   -7.9855   18.5308 N   0  0  0  0  0  0  0  0  0  0  0  0
    1.7949   -6.9364   18.0635 C   0  0  0  0  0  0  0  0  0  0  0  0
    2.8545   -6.9120   17.1316 C   0  0  0  0  0  0  0  0  0  0  0  0
    3.4632   -5.6896   16.8186 C   0  0  0  0  0  0  0  0  0  0  0  0
    3.0239   -4.5146   17.4296 C   0  0  0  0  0  0  0  0  0  0  0  0
    1.9942   -4.5251   18.3818 C   0  0  0  0  0  0  0  0  0  0  0  0
    1.3931   -5.7603   18.6588 C   0  0  0  0  0  0  0  0  0  0  0  0
    0.3060   -6.1338   19.4298 N   0  0  0  0  0  0  0  0  0  0  0  0
   -4.2027   -7.4808   19.1846 H   0  0  0  0  0  0  0  0  0  0  0  0
   -5.0777   -7.7267   17.6706 H   0  0  0  0  0  0  0  0  0  0  0  0
   -4.6073   -9.1221   18.6449 H   0  0  0  0  0  0  0  0  0  0  0  0
   -3.1651   -8.8580   16.6565 H   0  0  0  0  0  0  0  0  0  0  0  0
   -1.6001   -6.9214   16.4654 H   0  0  0  0  0  0  0  0  0  0  0  0
   -3.3009   -6.4631   16.3171 H   0  0  0  0  0  0  0  0  0  0  0  0
   -2.4310   -6.1226   17.8137 H   0  0  0  0  0  0  0  0  0  0  0  0
   -1.0098   -9.0553   17.6421 H   0  0  0  0  0  0  0  0  0  0  0  0
   -2.1954   -9.9477   18.5576 H   0  0  0  0  0  0  0  0  0  0  0  0
   -1.9723   -7.3175   19.6442 H   0  0  0  0  0  0  0  0  0  0  0  0
   -2.5308   -8.1980   21.6964 H   0  0  0  0  0  0  0  0  0  0  0  0
   -3.3695   -9.4384   23.3848 H   0  0  0  0  0  0  0  0  0  0  0  0
   -5.9555  -10.3929   21.7958 H   0  0  0  0  0  0  0  0  0  0  0  0
   -4.9760   -8.9390   21.3808 H   0  0  0  0  0  0  0  0  0  0  0  0
   -4.6776  -10.5264   20.6608 H   0  0  0  0  0  0  0  0  0  0  0  0
   -6.3813  -12.1521   23.5033 H   0  0  0  0  0  0  0  0  0  0  0  0
   -7.0759  -13.9126   24.9886 H   0  0  0  0  0  0  0  0  0  0  0  0
   -5.4150  -14.8633   26.6152 H   0  0  0  0  0  0  0  0  0  0  0  0
   -3.1681  -13.9152   26.6434 H   0  0  0  0  0  0  0  0  0  0  0  0
    3.1696   -7.8374   16.6615 H   0  0  0  0  0  0  0  0  0  0  0  0
    4.2594   -5.6582   16.0805 H   0  0  0  0  0  0  0  0  0  0  0  0
    3.4656   -3.5619   17.1491 H   0  0  0  0  0  0  0  0  0  0  0  0
    1.6497   -3.6078   18.8461 H   0  0  0  0  0  0  0  0  0  0  0  0
   -0.3290   -5.4629   19.8231 H   0  0  0  0  0  0  0  0  0  0  0  0
  1  2  1  0
  2  3  1  0
  2  4  1  0
  4  5  1  0
  5  6  1  0
  6  7  1  0
  7  8  2  0
  7  9  1  0
  9 10  1  0
  9 11  1  0
 11 12  2  0
 12 13  1  0
 13 14  2  0
 14 15  1  0
 15 16  2  0
  5 17  1  0
 17 18  2  0
 18 19  1  0
 19 20  2  0
 20 21  1  0
 21 22  2  0
 22 23  1  0
 23 24  2  0
 24 25  1  0
 16 11  1  0
 25 17  1  0
 24 19  1  0
  1 26  1  0
  1 27  1  0
  1 28  1  0
  2 29  1  0
  3 30  1  0
  3 31  1  0
  3 32  1  0
  4 33  1  0
  4 34  1  0
  5 35  1  0
  6 36  1  0
  9 37  1  0
 10 38  1  0
 10 39  1  0
 10 40  1  0
 12 41  1  0
 13 42  1  0
 14 43  1  0
 15 44  1  0
 20 45  1  0
 21 46  1  0
 22 47  1  0
 23 48  1  0
 25 49  1  0
M  END
>  <Energy>  (965) 
297.04576605757529

>  <compound_id>  (965) 
6177

>  <target_id>  (965) 
1

>  <reference_id>  (965) 
82

>  <inspiration_ids>  (965) 
[82, 103]

>  <energy_score>  (965) 
224.2562369294592

>  <distance_score>  (965) 
14.580098570957249

>  <path>  (965) 
/opt/xchem-fragalysis-2/maxwin/BulkDock/SCRATCH/511018/C6177-P82/C6177-P82.minimised.mol

>  <scratch_subdir>  (965) 
/opt/xchem-fragalysis-2/maxwin/BulkDock/SCRATCH/511018/C6177-P82

>  <fragmenstein_runtime>  (965) 
29.39502191543579

>  <fragmenstein_outcome>  (965) 
too moved

>  <fragmenstein_mode>  (965) 
expansion

>  <fragmenstein_error>  (965) 


$$$$
C6177-P103
     RDKit          3D

 49 51  0  0  0  0  0  0  0  0999 V2000
    0.0950   -7.1425   23.4580 C   0  0  0  0  0  0  0  0  0  0  0  0
   -1.2554   -7.4148   24.0997 C   0  0  0  0  0  0  0  0  0  0  0  0
   -1.0719   -7.3547   25.6337 C   0  0  0  0  0  0  0  0  0  0  0  0
   -2.0494   -8.5906   23.0703 C   0  0  0  0  0  0  0  0  0  0  0  0
   -3.5198   -9.4392   22.6319 C   0  0  0  0  0  0  0  0  0  0  0  0
   -3.7870  -10.9144   23.8409 N   0  0  0  0  0  0  0  0  0  0  0  0
   -5.2673  -11.9058   24.1946 C   0  0  0  0  0  0  0  0  0  0  0  0
   -6.4295  -11.7590   23.7783 O   0  0  0  0  0  0  0  0  0  0  0  0
   -4.9899  -13.2801   25.1208 C   0  0  0  0  0  0  0  0  0  0  0  0
   -3.9302  -13.2605   26.1842 C   0  0  0  0  0  0  0  0  0  0  0  0
   -6.1714  -14.1363   25.6930 C   0  0  0  0  0  0  0  0  0  0  0  0
   -7.3138  -13.5955   26.2692 C   0  0  0  0  0  0  0  0  0  0  0  0
   -8.2272  -14.4388   26.9294 C   0  0  0  0  0  0  0  0  0  0  0  0
   -7.9863  -15.8049   27.0202 C   0  0  0  0  0  0  0  0  0  0  0  0
   -6.8347  -16.2808   26.4295 C   0  0  0  0  0  0  0  0  0  0  0  0
   -5.9371  -15.4907   25.7823 N   0  0  0  0  0  0  0  0  0  0  0  0
   -3.0759   -9.4127   20.9630 C   0  0  0  0  0  0  0  0  0  0  0  0
   -3.6723   -8.5631   20.0973 N   0  0  0  0  0  0  0  0  0  0  0  0
   -2.6831   -7.9078   19.3479 C   0  0  0  0  0  0  0  0  0  0  0  0
   -2.7336   -6.8267   18.4371 C   0  0  0  0  0  0  0  0  0  0  0  0
   -1.5425   -6.2600   17.9270 C   0  0  0  0  0  0  0  0  0  0  0  0
   -0.3025   -6.7525   18.3108 C   0  0  0  0  0  0  0  0  0  0  0  0
   -0.2403   -7.8322   19.1919 C   0  0  0  0  0  0  0  0  0  0  0  0
   -1.4444   -8.4020   19.6764 C   0  0  0  0  0  0  0  0  0  0  0  0
   -1.7477   -9.5018   20.4860 N   0  0  0  0  0  0  0  0  0  0  0  0
    0.1638   -7.4281   22.4098 H   0  0  0  0  0  0  0  0  0  0  0  0
    0.4056   -6.1013   23.5887 H   0  0  0  0  0  0  0  0  0  0  0  0
    0.8330   -7.7861   23.8864 H   0  0  0  0  0  0  0  0  0  0  0  0
   -1.9047   -6.5581   24.1637 H   0  0  0  0  0  0  0  0  0  0  0  0
   -0.4934   -8.1355   26.1046 H   0  0  0  0  0  0  0  0  0  0  0  0
   -0.5485   -6.4215   25.8885 H   0  0  0  0  0  0  0  0  0  0  0  0
   -2.0283   -7.2412   26.1416 H   0  0  0  0  0  0  0  0  0  0  0  0
   -1.2287   -9.0589   22.5281 H   0  0  0  0  0  0  0  0  0  0  0  0
   -2.3278   -9.1517   23.9624 H   0  0  0  0  0  0  0  0  0  0  0  0
   -4.3143   -8.7024   22.5463 H   0  0  0  0  0  0  0  0  0  0  0  0
   -2.9867  -11.3297   24.2837 H   0  0  0  0  0  0  0  0  0  0  0  0
   -4.6145  -13.9722   24.3589 H   0  0  0  0  0  0  0  0  0  0  0  0
   -3.0901  -12.6846   25.8193 H   0  0  0  0  0  0  0  0  0  0  0  0
   -4.2939  -12.8392   27.1262 H   0  0  0  0  0  0  0  0  0  0  0  0
   -3.5683  -14.2710   26.4086 H   0  0  0  0  0  0  0  0  0  0  0  0
   -7.4939  -12.5246   26.2342 H   0  0  0  0  0  0  0  0  0  0  0  0
   -9.1173  -14.0069   27.3798 H   0  0  0  0  0  0  0  0  0  0  0  0
   -8.6711  -16.4676   27.5300 H   0  0  0  0  0  0  0  0  0  0  0  0
   -6.5808  -17.3361   26.4558 H   0  0  0  0  0  0  0  0  0  0  0  0
   -3.6997   -6.4145   18.1653 H   0  0  0  0  0  0  0  0  0  0  0  0
   -1.6068   -5.4215   17.2386 H   0  0  0  0  0  0  0  0  0  0  0  0
    0.6101   -6.3116   17.9216 H   0  0  0  0  0  0  0  0  0  0  0  0
    0.7141   -8.2439   19.4707 H   0  0  0  0  0  0  0  0  0  0  0  0
   -1.0221  -10.0951   20.8555 H   0  0  0  0  0  0  0  0  0  0  0  0
  1  2  1  0
  2  3  1  0
  2  4  1  0
  4  5  1  0
  5  6  1  0
  6  7  1  0
  7  8  2  0
  7  9  1  0
  9 10  1  0
  9 11  1  0
 11 12  2  0
 12 13  1  0
 13 14  2  0
 14 15  1  0
 15 16  2  0
  5 17  1  0
 17 18  2  0
 18 19  1  0
 19 20  2  0
 20 21  1  0
 21 22  2  0
 22 23  1  0
 23 24  2  0
 24 25  1  0
 16 11  1  0
 25 17  1  0
 24 19  1  0
  1 26  1  0
  1 27  1  0
  1 28  1  0
  2 29  1  0
  3 30  1  0
  3 31  1  0
  3 32  1  0
  4 33  1  0
  4 34  1  0
  5 35  1  0
  6 36  1  0
  9 37  1  0
 10 38  1  0
 10 39  1  0
 10 40  1  0
 12 41  1  0
 13 42  1  0
 14 43  1  0
 15 44  1  0
 20 45  1  0
 21 46  1  0
 22 47  1  0
 23 48  1  0
 25 49  1  0
M  END
>  <Energy>  (966) 
319.96449751418072

>  <compound_id>  (966) 
6177

>  <target_id>  (966) 
1

>  <reference_id>  (966) 
103

>  <inspiration_ids>  (966) 
[82, 103]

>  <energy_score>  (966) 
247.17496838606644

>  <distance_score>  (966) 
15.780320757896126

>  <path>  (966) 
/opt/xchem-fragalysis-2/maxwin/BulkDock/SCRATCH/511018/C6177-P103/C6177-P103.minimised.mol

>  <scratch_subdir>  (966) 
/opt/xchem-fragalysis-2/maxwin/BulkDock/SCRATCH/511018/C6177-P103

>  <fragmenstein_runtime>  (966) 
31.728628635406494

>  <fragmenstein_outcome>  (966) 
too moved

>  <fragmenstein_mode>  (966) 
expansion

>  <fragmenstein_error>  (966) 


$$$$
C6178-P82
     RDKit          3D

 35 37  0  0  0  0  0  0  0  0999 V2000
   -3.9247   -8.0854   25.6305 O   0  0  0  0  0  0  0  0  0  0  0  0
   -3.8930   -8.8596   24.7166 C   0  0  0  0  0  0  0  0  0  0  0  0
   -4.4692  -10.2062   24.5867 N   0  0  0  0  0  0  0  0  0  0  0  0
   -5.3220  -10.9595   25.4790 O   0  0  0  0  0  0  0  0  0  0  0  0
   -5.3949  -12.3901   25.1671 C   0  0  0  0  0  0  0  0  0  0  0  0
   -6.1567  -13.4665   26.0353 C   0  0  0  0  0  0  0  0  0  0  0  0
   -7.3024  -13.1841   26.7718 C   0  0  0  0  0  0  0  0  0  0  0  0
   -8.0743  -14.2432   27.3031 C   0  0  0  0  0  0  0  0  0  0  0  0
   -7.7150  -15.5821   27.0906 C   0  0  0  0  0  0  0  0  0  0  0  0
   -8.5571  -16.7191   27.5949 C   0  0  0  0  0  0  0  0  0  0  0  0
   -9.8567  -16.6040   27.2031 F   0  0  0  0  0  0  0  0  0  0  0  0
   -8.5682  -16.7544   28.9536 F   0  0  0  0  0  0  0  0  0  0  0  0
   -8.1583  -17.9580   27.1862 F   0  0  0  0  0  0  0  0  0  0  0  0
   -6.5428  -15.7854   26.3903 C   0  0  0  0  0  0  0  0  0  0  0  0
   -5.7763  -14.7788   25.8618 N   0  0  0  0  0  0  0  0  0  0  0  0
   -2.9747   -8.3113   23.5440 C   0  0  0  0  0  0  0  0  0  0  0  0
   -2.1443   -7.2738   23.7748 N   0  0  0  0  0  0  0  0  0  0  0  0
   -1.3946   -7.0090   22.6412 C   0  0  0  0  0  0  0  0  0  0  0  0
   -0.4214   -6.0197   22.3735 C   0  0  0  0  0  0  0  0  0  0  0  0
    0.1800   -5.9587   21.1047 C   0  0  0  0  0  0  0  0  0  0  0  0
   -0.1543   -6.8932   20.1299 C   0  0  0  0  0  0  0  0  0  0  0  0
   -1.1231   -7.8814   20.3832 C   0  0  0  0  0  0  0  0  0  0  0  0
   -1.7382   -7.9078   21.6492 C   0  0  0  0  0  0  0  0  0  0  0  0
   -2.7517   -8.6869   22.2161 N   0  0  0  0  0  0  0  0  0  0  0  0
   -4.3189  -10.5437   23.6392 H   0  0  0  0  0  0  0  0  0  0  0  0
   -5.9024  -12.4606   24.2012 H   0  0  0  0  0  0  0  0  0  0  0  0
   -4.3641  -12.7504   25.0953 H   0  0  0  0  0  0  0  0  0  0  0  0
   -7.6288  -12.1547   26.8995 H   0  0  0  0  0  0  0  0  0  0  0  0
   -8.9807  -14.0030   27.8592 H   0  0  0  0  0  0  0  0  0  0  0  0
   -6.1643  -16.7862   26.1924 H   0  0  0  0  0  0  0  0  0  0  0  0
   -0.1529   -5.3149   23.1536 H   0  0  0  0  0  0  0  0  0  0  0  0
    0.9199   -5.1906   20.8957 H   0  0  0  0  0  0  0  0  0  0  0  0
    0.3295   -6.8603   19.1567 H   0  0  0  0  0  0  0  0  0  0  0  0
   -1.3918   -8.5946   19.6103 H   0  0  0  0  0  0  0  0  0  0  0  0
   -3.2678   -9.3902   21.7099 H   0  0  0  0  0  0  0  0  0  0  0  0
  1  2  2  0
  2  3  1  0
  3  4  1  0
  4  5  1  0
  5  6  1  0
  6  7  2  0
  7  8  1  0
  8  9  2  0
  9 10  1  0
 10 11  1  0
 10 12  1  0
 10 13  1  0
  9 14  1  0
 14 15  2  0
  2 16  1  0
 16 17  2  0
 17 18  1  0
 18 19  2  0
 19 20  1  0
 20 21  2  0
 21 22  1  0
 22 23  2  0
 23 24  1  0
 15  6  1  0
 24 16  1  0
 23 18  1  0
  3 25  1  0
  5 26  1  0
  5 27  1  0
  7 28  1  0
  8 29  1  0
 14 30  1  0
 19 31  1  0
 20 32  1  0
 21 33  1  0
 22 34  1  0
 24 35  1  0
M  END
>  <Energy>  (967) 
149.66404415081308

>  <compound_id>  (967) 
6178

>  <target_id>  (967) 
1

>  <reference_id>  (967) 
82

>  <inspiration_ids>  (967) 
[82, 103]

>  <energy_score>  (967) 
38.04150353187174

>  <distance_score>  (967) 
15.701356090440596

>  <path>  (967) 
/opt/xchem-fragalysis-2/maxwin/BulkDock/SCRATCH/511018/C6178-P82/C6178-P82.minimised.mol

>  <scratch_subdir>  (967) 
/opt/xchem-fragalysis-2/maxwin/BulkDock/SCRATCH/511018/C6178-P82

>  <fragmenstein_runtime>  (967) 
25.67927098274231

>  <fragmenstein_outcome>  (967) 
too moved

>  <fragmenstein_mode>  (967) 
expansion

>  <fragmenstein_error>  (967) 


$$$$
C6178-P103
     RDKit          3D

 35 37  0  0  0  0  0  0  0  0999 V2000
    5.1759  -12.5867   28.5606 O   0  0  0  0  0  0  0  0  0  0  0  0
    5.1305  -13.1216   27.4777 C   0  0  0  0  0  0  0  0  0  0  0  0
    4.1212  -14.4101   26.9712 N   0  0  0  0  0  0  0  0  0  0  0  0
    3.1261  -15.2579   27.7627 O   0  0  0  0  0  0  0  0  0  0  0  0
    2.9074  -16.8921   27.7251 C   0  0  0  0  0  0  0  0  0  0  0  0
    1.4963  -17.6855   28.2164 C   0  0  0  0  0  0  0  0  0  0  0  0
    0.6663  -17.3358   29.2938 C   0  0  0  0  0  0  0  0  0  0  0  0
   -0.5435  -18.0517   29.5733 C   0  0  0  0  0  0  0  0  0  0  0  0
   -0.9343  -19.1599   28.8158 C   0  0  0  0  0  0  0  0  0  0  0  0
   -2.1826  -19.9795   29.0902 C   0  0  0  0  0  0  0  0  0  0  0  0
   -1.8847  -21.2850   29.3410 F   0  0  0  0  0  0  0  0  0  0  0  0
   -2.8713  -19.5394   30.1793 F   0  0  0  0  0  0  0  0  0  0  0  0
   -3.0892  -20.0024   28.0665 F   0  0  0  0  0  0  0  0  0  0  0  0
   -0.0359  -19.4983   27.8192 C   0  0  0  0  0  0  0  0  0  0  0  0
    1.1353  -18.8126   27.5203 N   0  0  0  0  0  0  0  0  0  0  0  0
    6.2397  -12.5068   26.5346 C   0  0  0  0  0  0  0  0  0  0  0  0
    6.9767  -12.9788   25.5486 N   0  0  0  0  0  0  0  0  0  0  0  0
    8.0017  -12.0417   25.2940 C   0  0  0  0  0  0  0  0  0  0  0  0
    9.1587  -12.1172   24.4906 C   0  0  0  0  0  0  0  0  0  0  0  0
   10.0309  -11.0097   24.4116 C   0  0  0  0  0  0  0  0  0  0  0  0
    9.7337   -9.8238   25.0814 C   0  0  0  0  0  0  0  0  0  0  0  0
    8.6132   -9.7428   25.9195 C   0  0  0  0  0  0  0  0  0  0  0  0
    7.8040  -10.8879   26.0293 C   0  0  0  0  0  0  0  0  0  0  0  0
    6.7668  -11.2347   26.8618 N   0  0  0  0  0  0  0  0  0  0  0  0
    4.2596  -14.5821   25.9795 H   0  0  0  0  0  0  0  0  0  0  0  0
    3.6561  -17.3177   28.3906 H   0  0  0  0  0  0  0  0  0  0  0  0
    3.0708  -17.2395   26.7122 H   0  0  0  0  0  0  0  0  0  0  0  0
    0.8901  -16.4955   29.9374 H   0  0  0  0  0  0  0  0  0  0  0  0
   -1.1617  -17.7180   30.4078 H   0  0  0  0  0  0  0  0  0  0  0  0
   -0.2020  -20.3687   27.1852 H   0  0  0  0  0  0  0  0  0  0  0  0
    9.3794  -13.0320   23.9499 H   0  0  0  0  0  0  0  0  0  0  0  0
   10.9251  -11.0778   23.7962 H   0  0  0  0  0  0  0  0  0  0  0  0
   10.4002   -8.9691   24.9902 H   0  0  0  0  0  0  0  0  0  0  0  0
    8.4150   -8.8475   26.4991 H   0  0  0  0  0  0  0  0  0  0  0  0
    6.4351  -10.7054   27.6549 H   0  0  0  0  0  0  0  0  0  0  0  0
  1  2  2  0
  2  3  1  0
  3  4  1  0
  4  5  1  0
  5  6  1  0
  6  7  2  0
  7  8  1  0
  8  9  2  0
  9 10  1  0
 10 11  1  0
 10 12  1  0
 10 13  1  0
  9 14  1  0
 14 15  2  0
  2 16  1  0
 16 17  2  0
 17 18  1  0
 18 19  2  0
 19 20  1  0
 20 21  2  0
 21 22  1  0
 22 23  2  0
 23 24  1  0
 15  6  1  0
 24 16  1  0
 23 18  1  0
  3 25  1  0
  5 26  1  0
  5 27  1  0
  7 28  1  0
  8 29  1  0
 14 30  1  0
 19 31  1  0
 20 32  1  0
 21 33  1  0
 22 34  1  0
 24 35  1  0
M  END
>  <Energy>  (968) 
215.02996912015533

>  <compound_id>  (968) 
6178

>  <target_id>  (968) 
1

>  <reference_id>  (968) 
103

>  <inspiration_ids>  (968) 
[82, 103]

>  <energy_score>  (968) 
103.40742850121501

>  <distance_score>  (968) 
14.995979242471547

>  <path>  (968) 
/opt/xchem-fragalysis-2/maxwin/BulkDock/SCRATCH/511018/C6178-P103/C6178-P103.minimised.mol

>  <scratch_subdir>  (968) 
/opt/xchem-fragalysis-2/maxwin/BulkDock/SCRATCH/511018/C6178-P103

>  <fragmenstein_runtime>  (968) 
18.347737789154053

>  <fragmenstein_outcome>  (968) 
too moved

>  <fragmenstein_mode>  (968) 
expansion

>  <fragmenstein_error>  (968) 


$$$$
C6180-P82
     RDKit          3D

 43 46  0  0  0  0  0  0  0  0999 V2000
    0.8113   -2.2807   29.9319 O   0  0  0  0  0  0  0  0  0  0  0  0
    1.2123   -3.3659   29.6039 C   0  0  0  0  0  0  0  0  0  0  0  0
    2.3950   -3.3875   28.4814 C   0  0  0  0  0  0  0  0  0  0  0  0
    3.0305   -2.0365   27.8564 C   0  0  0  0  0  0  0  0  0  0  0  0
    4.1140   -2.0429   26.7053 C   0  0  0  0  0  0  0  0  0  0  0  0
    4.0374   -1.3641   25.5607 N   0  0  0  0  0  0  0  0  0  0  0  0
    5.2420   -1.5068   24.8912 C   0  0  0  0  0  0  0  0  0  0  0  0
    5.6701   -1.0154   23.6383 C   0  0  0  0  0  0  0  0  0  0  0  0
    6.9512   -1.3463   23.1643 C   0  0  0  0  0  0  0  0  0  0  0  0
    7.8038   -2.1370   23.9365 C   0  0  0  0  0  0  0  0  0  0  0  0
    7.4059   -2.6119   25.1980 C   0  0  0  0  0  0  0  0  0  0  0  0
    6.1140   -2.2788   25.6427 C   0  0  0  0  0  0  0  0  0  0  0  0
    5.4031   -2.5558   26.8010 N   0  0  0  0  0  0  0  0  0  0  0  0
    0.8188   -4.7412   30.0840 N   0  0  0  0  0  0  0  0  0  0  0  0
   -0.1329   -5.1748   31.2015 C   0  0  0  0  0  0  0  0  0  0  0  0
   -0.6830   -6.6468   31.3281 C   0  0  0  0  0  0  0  0  0  0  0  0
   -1.5680   -7.2028   32.1960 N   0  0  0  0  0  0  0  0  0  0  0  0
   -1.6231   -8.5934   31.8989 C   0  0  0  0  0  0  0  0  0  0  0  0
   -2.4987   -9.7042   32.4558 C   0  0  0  0  0  0  0  0  0  0  0  0
   -2.2779  -11.0467   32.0556 C   0  0  0  0  0  0  0  0  0  0  0  0
   -3.1501  -12.0731   32.4293 C   0  0  0  0  0  0  0  0  0  0  0  0
   -4.2317  -11.8711   33.2024 N   0  0  0  0  0  0  0  0  0  0  0  0
   -4.4250  -10.5965   33.6159 C   0  0  0  0  0  0  0  0  0  0  0  0
   -3.6095   -9.5019   33.2738 C   0  0  0  0  0  0  0  0  0  0  0  0
   -0.8865   -8.8390   30.8049 N   0  0  0  0  0  0  0  0  0  0  0  0
   -0.2995   -7.6636   30.5157 N   0  0  0  0  0  0  0  0  0  0  0  0
    3.2033   -3.9104   28.9951 H   0  0  0  0  0  0  0  0  0  0  0  0
    1.9874   -3.9649   27.6514 H   0  0  0  0  0  0  0  0  0  0  0  0
    3.4624   -1.4670   28.6896 H   0  0  0  0  0  0  0  0  0  0  0  0
    2.1895   -1.4359   27.4860 H   0  0  0  0  0  0  0  0  0  0  0  0
    4.9917   -0.4058   23.0514 H   0  0  0  0  0  0  0  0  0  0  0  0
    7.2713   -0.9771   22.1953 H   0  0  0  0  0  0  0  0  0  0  0  0
    8.7990   -2.3841   23.5737 H   0  0  0  0  0  0  0  0  0  0  0  0
    8.0756   -3.2165   25.8008 H   0  0  0  0  0  0  0  0  0  0  0  0
    5.7725   -3.0471   27.5987 H   0  0  0  0  0  0  0  0  0  0  0  0
    1.4172   -5.4267   29.6527 H   0  0  0  0  0  0  0  0  0  0  0  0
   -0.9836   -4.4868   31.1617 H   0  0  0  0  0  0  0  0  0  0  0  0
    0.4084   -4.9593   32.1300 H   0  0  0  0  0  0  0  0  0  0  0  0
   -1.4277  -11.2903   31.4259 H   0  0  0  0  0  0  0  0  0  0  0  0
   -2.9852  -13.0942   32.0970 H   0  0  0  0  0  0  0  0  0  0  0  0
   -5.2952  -10.4518   34.2525 H   0  0  0  0  0  0  0  0  0  0  0  0
   -3.8585   -8.5079   33.6326 H   0  0  0  0  0  0  0  0  0  0  0  0
    0.3870   -7.6560   29.7674 H   0  0  0  0  0  0  0  0  0  0  0  0
  1  2  2  0
  2  3  1  0
  3  4  1  0
  4  5  1  0
  5  6  2  0
  6  7  1  0
  7  8  2  0
  8  9  1  0
  9 10  2  0
 10 11  1  0
 11 12  2  0
 12 13  1  0
  2 14  1  0
 14 15  1  0
 15 16  1  0
 16 17  2  0
 17 18  1  0
 18 19  1  0
 19 20  2  0
 20 21  1  0
 21 22  2  0
 22 23  1  0
 23 24  2  0
 18 25  2  0
 25 26  1  0
 13  5  1  0
 26 16  1  0
 12  7  1  0
 24 19  1  0
  3 27  1  0
  3 28  1  0
  4 29  1  0
  4 30  1  0
  8 31  1  0
  9 32  1  0
 10 33  1  0
 11 34  1  0
 13 35  1  0
 14 36  1  0
 15 37  1  0
 15 38  1  0
 20 39  1  0
 21 40  1  0
 23 41  1  0
 24 42  1  0
 26 43  1  0
M  END
>  <Energy>  (969) 
48.249054832945056

>  <compound_id>  (969) 
6180

>  <target_id>  (969) 
1

>  <reference_id>  (969) 
82

>  <inspiration_ids>  (969) 
[82, 103]

>  <energy_score>  (969) 
31.051149519079672

>  <distance_score>  (969) 
14.36488191348062

>  <path>  (969) 
/opt/xchem-fragalysis-2/maxwin/BulkDock/SCRATCH/511018/C6180-P82/C6180-P82.minimised.mol

>  <scratch_subdir>  (969) 
/opt/xchem-fragalysis-2/maxwin/BulkDock/SCRATCH/511018/C6180-P82

>  <fragmenstein_runtime>  (969) 
39.628750801086426

>  <fragmenstein_outcome>  (969) 
too moved

>  <fragmenstein_mode>  (969) 
expansion

>  <fragmenstein_error>  (969) 


$$$$
C6180-P103
     RDKit          3D

 43 46  0  0  0  0  0  0  0  0999 V2000
   -2.8594  -11.3356   20.7099 O   0  0  0  0  0  0  0  0  0  0  0  0
   -2.8719  -10.3482   21.4348 C   0  0  0  0  0  0  0  0  0  0  0  0
   -2.1306   -9.0569   20.7330 C   0  0  0  0  0  0  0  0  0  0  0  0
   -1.8838   -9.1037   19.0531 C   0  0  0  0  0  0  0  0  0  0  0  0
   -0.7122   -8.5057   18.0667 C   0  0  0  0  0  0  0  0  0  0  0  0
   -0.8656   -8.2263   16.7652 N   0  0  0  0  0  0  0  0  0  0  0  0
    0.4045   -8.1967   16.1716 C   0  0  0  0  0  0  0  0  0  0  0  0
    0.8153   -7.8731   14.8621 C   0  0  0  0  0  0  0  0  0  0  0  0
    2.1828   -7.9014   14.5262 C   0  0  0  0  0  0  0  0  0  0  0  0
    3.1380   -8.2826   15.4644 C   0  0  0  0  0  0  0  0  0  0  0  0
    2.7542   -8.6130   16.7690 C   0  0  0  0  0  0  0  0  0  0  0  0
    1.3836   -8.5142   17.1012 C   0  0  0  0  0  0  0  0  0  0  0  0
    0.6715   -8.5079   18.3027 N   0  0  0  0  0  0  0  0  0  0  0  0
   -3.4130  -10.1783   23.0274 N   0  0  0  0  0  0  0  0  0  0  0  0
   -4.0641  -11.4967   24.2740 C   0  0  0  0  0  0  0  0  0  0  0  0
   -5.8541  -11.7940   24.4282 C   0  0  0  0  0  0  0  0  0  0  0  0
   -6.1955  -12.9980   24.3287 N   0  0  0  0  0  0  0  0  0  0  0  0
   -7.0319  -13.5542   25.8647 C   0  0  0  0  0  0  0  0  0  0  0  0
   -8.3049  -14.6239   26.2694 C   0  0  0  0  0  0  0  0  0  0  0  0
   -8.7262  -15.6955   25.4409 C   0  0  0  0  0  0  0  0  0  0  0  0
   -9.5865  -16.6660   25.9623 C   0  0  0  0  0  0  0  0  0  0  0  0
  -10.1116  -16.6353   27.2129 N   0  0  0  0  0  0  0  0  0  0  0  0
   -9.7581  -15.5564   27.9578 C   0  0  0  0  0  0  0  0  0  0  0  0
   -8.8633  -14.5622   27.5573 C   0  0  0  0  0  0  0  0  0  0  0  0
   -6.8556  -12.4447   26.4975 N   0  0  0  0  0  0  0  0  0  0  0  0
   -6.7316  -11.4671   25.4820 N   0  0  0  0  0  0  0  0  0  0  0  0
   -1.1518   -8.9676   21.2159 H   0  0  0  0  0  0  0  0  0  0  0  0
   -2.7588   -8.2078   20.9909 H   0  0  0  0  0  0  0  0  0  0  0  0
   -2.7655   -8.6263   18.6381 H   0  0  0  0  0  0  0  0  0  0  0  0
   -2.0026  -10.1505   18.7429 H   0  0  0  0  0  0  0  0  0  0  0  0
    0.0688   -7.5908   14.1273 H   0  0  0  0  0  0  0  0  0  0  0  0
    2.4868   -7.6360   13.5165 H   0  0  0  0  0  0  0  0  0  0  0  0
    4.1877   -8.3081   15.1831 H   0  0  0  0  0  0  0  0  0  0  0  0
    3.5118   -8.8527   17.4974 H   0  0  0  0  0  0  0  0  0  0  0  0
    1.0296   -8.8291   19.1864 H   0  0  0  0  0  0  0  0  0  0  0  0
   -3.3561   -9.1899   23.3102 H   0  0  0  0  0  0  0  0  0  0  0  0
   -3.9132  -12.5236   24.1709 H   0  0  0  0  0  0  0  0  0  0  0  0
   -3.3400  -11.8062   25.0971 H   0  0  0  0  0  0  0  0  0  0  0  0
   -8.2933  -15.8308   24.4545 H   0  0  0  0  0  0  0  0  0  0  0  0
   -9.8654  -17.5271   25.3583 H   0  0  0  0  0  0  0  0  0  0  0  0
  -10.2342  -15.4873   28.9309 H   0  0  0  0  0  0  0  0  0  0  0  0
   -8.5845  -13.7594   28.2333 H   0  0  0  0  0  0  0  0  0  0  0  0
   -7.1265  -10.5702   25.6825 H   0  0  0  0  0  0  0  0  0  0  0  0
  1  2  2  0
  2  3  1  0
  3  4  1  0
  4  5  1  0
  5  6  2  0
  6  7  1  0
  7  8  2  0
  8  9  1  0
  9 10  2  0
 10 11  1  0
 11 12  2  0
 12 13  1  0
  2 14  1  0
 14 15  1  0
 15 16  1  0
 16 17  2  0
 17 18  1  0
 18 19  1  0
 19 20  2  0
 20 21  1  0
 21 22  2  0
 22 23  1  0
 23 24  2  0
 18 25  2  0
 25 26  1  0
 13  5  1  0
 26 16  1  0
 12  7  1  0
 24 19  1  0
  3 27  1  0
  3 28  1  0
  4 29  1  0
  4 30  1  0
  8 31  1  0
  9 32  1  0
 10 33  1  0
 11 34  1  0
 13 35  1  0
 14 36  1  0
 15 37  1  0
 15 38  1  0
 20 39  1  0
 21 40  1  0
 23 41  1  0
 24 42  1  0
 26 43  1  0
M  END
>  <Energy>  (970) 
329.10441747780249

>  <compound_id>  (970) 
6180

>  <target_id>  (970) 
1

>  <reference_id>  (970) 
103

>  <inspiration_ids>  (970) 
[82, 103]

>  <energy_score>  (970) 
311.9065121639312

>  <distance_score>  (970) 
13.773392098768493

>  <path>  (970) 
/opt/xchem-fragalysis-2/maxwin/BulkDock/SCRATCH/511018/C6180-P103/C6180-P103.minimised.mol

>  <scratch_subdir>  (970) 
/opt/xchem-fragalysis-2/maxwin/BulkDock/SCRATCH/511018/C6180-P103

>  <fragmenstein_runtime>  (970) 
23.335947036743164

>  <fragmenstein_outcome>  (970) 
too moved

>  <fragmenstein_mode>  (970) 
expansion

>  <fragmenstein_error>  (970) 


$$$$
C6181-P82
     RDKit          3D

 52 55  0  0  0  0  0  0  0  0999 V2000
    0.2127   -8.3550   22.9854 O   0  0  0  0  0  0  0  0  0  0  0  0
   -0.1938   -9.0145   22.0447 C   0  0  0  0  0  0  0  0  0  0  0  0
   -0.6078   -8.1157   20.8609 C   0  0  0  0  0  0  0  0  0  0  0  0
    0.5615   -7.4707   19.9637 C   0  0  0  0  0  0  0  0  0  0  0  0
    1.7991   -6.6660   20.3781 C   0  0  0  0  0  0  0  0  0  0  0  0
    2.7613   -6.3411   19.5096 N   0  0  0  0  0  0  0  0  0  0  0  0
    3.8309   -5.8945   20.2446 C   0  0  0  0  0  0  0  0  0  0  0  0
    5.1599   -5.6502   19.8547 C   0  0  0  0  0  0  0  0  0  0  0  0
    6.0823   -5.2005   20.8076 C   0  0  0  0  0  0  0  0  0  0  0  0
    5.6912   -5.0212   22.1321 C   0  0  0  0  0  0  0  0  0  0  0  0
    4.3862   -5.3255   22.5516 C   0  0  0  0  0  0  0  0  0  0  0  0
    3.4817   -5.7792   21.5815 C   0  0  0  0  0  0  0  0  0  0  0  0
    2.1856   -6.2833   21.6489 N   0  0  0  0  0  0  0  0  0  0  0  0
   -0.2456  -10.5505   21.8346 N   0  0  0  0  0  0  0  0  0  0  0  0
    0.4078  -11.9353   22.8667 C   0  0  0  0  0  0  0  0  0  0  0  0
   -0.0720  -13.8868   23.7875 C   0  0  0  0  0  0  0  0  0  0  0  0
    1.1517  -13.4749   25.3665 C   0  0  0  0  0  0  0  0  0  0  0  0
    0.8310  -13.9868   26.7195 C   0  0  0  0  0  0  0  0  0  0  0  0
   -0.7478  -14.8844   27.7101 C   0  0  0  0  0  0  0  0  0  0  0  0
   -1.9261  -14.9493   26.9514 N   0  0  0  0  0  0  0  0  0  0  0  0
   -2.4092  -15.0337   28.4296 C   0  0  0  0  0  0  0  0  0  0  0  0
   -1.5624  -15.0468   29.8901 C   0  0  0  0  0  0  0  0  0  0  0  0
   -1.6328  -15.5996   31.1909 C   0  0  0  0  0  0  0  0  0  0  0  0
   -2.8402  -16.1382   31.2373 C   0  0  0  0  0  0  0  0  0  0  0  0
   -3.7367  -16.0602   29.8718 C   0  0  0  0  0  0  0  0  0  0  0  0
   -3.4151  -15.8908   28.5362 N   0  0  0  0  0  0  0  0  0  0  0  0
   -1.5441  -14.1781   25.2432 C   0  0  0  0  0  0  0  0  0  0  0  0
   -1.2001   -7.2920   21.2808 H   0  0  0  0  0  0  0  0  0  0  0  0
   -1.2878   -8.6753   20.2098 H   0  0  0  0  0  0  0  0  0  0  0  0
    0.0356   -6.8261   19.2444 H   0  0  0  0  0  0  0  0  0  0  0  0
    0.9821   -8.2780   19.3604 H   0  0  0  0  0  0  0  0  0  0  0  0
    5.4445   -5.8489   18.8292 H   0  0  0  0  0  0  0  0  0  0  0  0
    7.1083   -4.9948   20.5307 H   0  0  0  0  0  0  0  0  0  0  0  0
    6.4129   -4.6646   22.8642 H   0  0  0  0  0  0  0  0  0  0  0  0
    4.0887   -5.2356   23.5918 H   0  0  0  0  0  0  0  0  0  0  0  0
    1.6722   -6.5080   22.4959 H   0  0  0  0  0  0  0  0  0  0  0  0
   -0.5722  -10.7497   20.8933 H   0  0  0  0  0  0  0  0  0  0  0  0
    1.3917  -11.7501   22.4016 H   0  0  0  0  0  0  0  0  0  0  0  0
    1.1649  -11.5849   23.5931 H   0  0  0  0  0  0  0  0  0  0  0  0
    0.8219  -14.4286   23.5561 H   0  0  0  0  0  0  0  0  0  0  0  0
    2.1310  -13.2408   24.8611 H   0  0  0  0  0  0  0  0  0  0  0  0
    1.2670  -12.3659   25.6021 H   0  0  0  0  0  0  0  0  0  0  0  0
    1.5213  -14.7185   27.0692 H   0  0  0  0  0  0  0  0  0  0  0  0
    1.2857  -12.9928   27.0252 H   0  0  0  0  0  0  0  0  0  0  0  0
   -1.1225  -16.0639   27.6531 H   0  0  0  0  0  0  0  0  0  0  0  0
   -0.4423  -15.6752   28.4385 H   0  0  0  0  0  0  0  0  0  0  0  0
   -0.5878  -14.7432   30.1479 H   0  0  0  0  0  0  0  0  0  0  0  0
   -0.9316  -15.3538   31.9428 H   0  0  0  0  0  0  0  0  0  0  0  0
   -3.1919  -16.5244   32.2011 H   0  0  0  0  0  0  0  0  0  0  0  0
   -4.8411  -16.2418   29.8705 H   0  0  0  0  0  0  0  0  0  0  0  0
   -2.1257  -13.2524   25.4049 H   0  0  0  0  0  0  0  0  0  0  0  0
   -2.0634  -15.0467   24.7785 H   0  0  0  0  0  0  0  0  0  0  0  0
  1  2  2  0
  2  3  1  0
  3  4  1  0
  4  5  1  0
  5  6  2  0
  6  7  1  0
  7  8  2  0
  8  9  1  0
  9 10  2  0
 10 11  1  0
 11 12  2  0
 12 13  1  0
  2 14  1  0
 14 15  1  0
 15 16  1  0
 16 17  1  0
 17 18  1  0
 18 19  1  0
 19 20  1  0
 20 21  1  0
 21 22  2  0
 22 23  1  0
 23 24  2  0
 24 25  1  0
 25 26  2  0
 20 27  1  0
 13  5  1  0
 27 16  1  0
 12  7  1  0
 26 21  1  0
  3 28  1  0
  3 29  1  0
  4 30  1  0
  4 31  1  0
  8 32  1  0
  9 33  1  0
 10 34  1  0
 11 35  1  0
 13 36  1  0
 14 37  1  0
 15 38  1  0
 15 39  1  0
 16 40  1  0
 17 41  1  0
 17 42  1  0
 18 43  1  0
 18 44  1  0
 19 45  1  0
 19 46  1  0
 22 47  1  0
 23 48  1  0
 24 49  1  0
 25 50  1  0
 27 51  1  0
 27 52  1  0
M  END
>  <Energy>  (971) 
940.92221152762033

>  <compound_id>  (971) 
6181

>  <target_id>  (971) 
1

>  <reference_id>  (971) 
82

>  <inspiration_ids>  (971) 
[82, 103]

>  <energy_score>  (971) 
940.7658183454575

>  <distance_score>  (971) 
13.11690542193639

>  <path>  (971) 
/opt/xchem-fragalysis-2/maxwin/BulkDock/SCRATCH/511018/C6181-P82/C6181-P82.minimised.mol

>  <scratch_subdir>  (971) 
/opt/xchem-fragalysis-2/maxwin/BulkDock/SCRATCH/511018/C6181-P82

>  <fragmenstein_runtime>  (971) 
41.68290662765503

>  <fragmenstein_outcome>  (971) 
too moved

>  <fragmenstein_mode>  (971) 
expansion

>  <fragmenstein_error>  (971) 


$$$$
C6181-P103
     RDKit          3D

 52 55  0  0  0  0  0  0  0  0999 V2000
    4.8029  -10.3882   22.9982 O   0  0  0  0  0  0  0  0  0  0  0  0
    4.5070  -11.3491   22.3341 C   0  0  0  0  0  0  0  0  0  0  0  0
    5.7904  -11.5523   20.8818 C   0  0  0  0  0  0  0  0  0  0  0  0
    6.6357  -10.4868   19.9128 C   0  0  0  0  0  0  0  0  0  0  0  0
    7.5155   -9.3496   20.4672 C   0  0  0  0  0  0  0  0  0  0  0  0
    8.7710   -9.4192   20.8806 N   0  0  0  0  0  0  0  0  0  0  0  0
    9.1392   -8.1401   21.2546 C   0  0  0  0  0  0  0  0  0  0  0  0
   10.3362   -7.6647   21.8124 C   0  0  0  0  0  0  0  0  0  0  0  0
   10.4729   -6.2911   22.0567 C   0  0  0  0  0  0  0  0  0  0  0  0
    9.4232   -5.4117   21.7910 C   0  0  0  0  0  0  0  0  0  0  0  0
    8.2115   -5.8664   21.2620 C   0  0  0  0  0  0  0  0  0  0  0  0
    8.1217   -7.2352   20.9898 C   0  0  0  0  0  0  0  0  0  0  0  0
    7.1395   -8.0124   20.4226 N   0  0  0  0  0  0  0  0  0  0  0  0
    3.1939  -12.6186   22.5983 N   0  0  0  0  0  0  0  0  0  0  0  0
    1.9397  -12.9220   24.0910 C   0  0  0  0  0  0  0  0  0  0  0  0
    0.2074  -14.1280   24.6683 C   0  0  0  0  0  0  0  0  0  0  0  0
    0.9151  -13.5241   26.0428 C   0  0  0  0  0  0  0  0  0  0  0  0
    0.8792  -14.5732   27.0296 C   0  0  0  0  0  0  0  0  0  0  0  0
   -0.8184  -15.0654   28.1751 C   0  0  0  0  0  0  0  0  0  0  0  0
   -2.1961  -15.1139   27.5659 N   0  0  0  0  0  0  0  0  0  0  0  0
   -3.1733  -15.3484   29.2621 C   0  0  0  0  0  0  0  0  0  0  0  0
   -4.8261  -15.9977   29.8557 C   0  0  0  0  0  0  0  0  0  0  0  0
   -5.7548  -16.3967   31.4317 C   0  0  0  0  0  0  0  0  0  0  0  0
   -4.8167  -16.6845   32.5500 C   0  0  0  0  0  0  0  0  0  0  0  0
   -3.2752  -16.4339   32.0455 C   0  0  0  0  0  0  0  0  0  0  0  0
   -2.6197  -15.7154   30.6373 N   0  0  0  0  0  0  0  0  0  0  0  0
   -1.7728  -14.4072   25.6388 C   0  0  0  0  0  0  0  0  0  0  0  0
    6.7177  -11.8112   21.4364 H   0  0  0  0  0  0  0  0  0  0  0  0
    5.5471  -12.4757   20.3214 H   0  0  0  0  0  0  0  0  0  0  0  0
    5.9924  -10.0974   19.1139 H   0  0  0  0  0  0  0  0  0  0  0  0
    7.3439  -11.1349   19.3725 H   0  0  0  0  0  0  0  0  0  0  0  0
   11.1440   -8.3552   22.0285 H   0  0  0  0  0  0  0  0  0  0  0  0
   11.4062   -5.9082   22.4643 H   0  0  0  0  0  0  0  0  0  0  0  0
    9.5595   -4.3533   22.0009 H   0  0  0  0  0  0  0  0  0  0  0  0
    7.3923   -5.1835   21.0665 H   0  0  0  0  0  0  0  0  0  0  0  0
    6.2509   -7.6719   20.0892 H   0  0  0  0  0  0  0  0  0  0  0  0
    3.1434  -13.2648   21.8078 H   0  0  0  0  0  0  0  0  0  0  0  0
    2.8277  -13.4234   24.4820 H   0  0  0  0  0  0  0  0  0  0  0  0
    1.8396  -11.9132   24.3801 H   0  0  0  0  0  0  0  0  0  0  0  0
   -0.2227  -13.9891   23.6559 H   0  0  0  0  0  0  0  0  0  0  0  0
    0.8743  -12.4828   26.3092 H   0  0  0  0  0  0  0  0  0  0  0  0
    1.9656  -13.5394   25.9913 H   0  0  0  0  0  0  0  0  0  0  0  0
    1.4081  -15.6223   27.3834 H   0  0  0  0  0  0  0  0  0  0  0  0
    1.9960  -14.4411   27.4271 H   0  0  0  0  0  0  0  0  0  0  0  0
   -0.7750  -15.0015   29.2857 H   0  0  0  0  0  0  0  0  0  0  0  0
   -0.6632  -16.0917   28.4141 H   0  0  0  0  0  0  0  0  0  0  0  0
   -5.4535  -16.4375   29.1193 H   0  0  0  0  0  0  0  0  0  0  0  0
   -6.5485  -17.1486   31.5034 H   0  0  0  0  0  0  0  0  0  0  0  0
   -5.0545  -17.6125   33.0668 H   0  0  0  0  0  0  0  0  0  0  0  0
   -2.6557  -17.2885   32.2880 H   0  0  0  0  0  0  0  0  0  0  0  0
   -2.3387  -13.4586   25.6008 H   0  0  0  0  0  0  0  0  0  0  0  0
   -2.2901  -15.1696   25.0295 H   0  0  0  0  0  0  0  0  0  0  0  0
  1  2  2  0
  2  3  1  0
  3  4  1  0
  4  5  1  0
  5  6  2  0
  6  7  1  0
  7  8  2  0
  8  9  1  0
  9 10  2  0
 10 11  1  0
 11 12  2  0
 12 13  1  0
  2 14  1  0
 14 15  1  0
 15 16  1  0
 16 17  1  0
 17 18  1  0
 18 19  1  0
 19 20  1  0
 20 21  1  0
 21 22  2  0
 22 23  1  0
 23 24  2  0
 24 25  1  0
 25 26  2  0
 20 27  1  0
 13  5  1  0
 27 16  1  0
 12  7  1  0
 26 21  1  0
  3 28  1  0
  3 29  1  0
  4 30  1  0
  4 31  1  0
  8 32  1  0
  9 33  1  0
 10 34  1  0
 11 35  1  0
 13 36  1  0
 14 37  1  0
 15 38  1  0
 15 39  1  0
 16 40  1  0
 17 41  1  0
 17 42  1  0
 18 43  1  0
 18 44  1  0
 19 45  1  0
 19 46  1  0
 22 47  1  0
 23 48  1  0
 24 49  1  0
 25 50  1  0
 27 51  1  0
 27 52  1  0
M  END
>  <Energy>  (972) 
1314.9391666421786

>  <compound_id>  (972) 
6181

>  <target_id>  (972) 
1

>  <reference_id>  (972) 
103

>  <inspiration_ids>  (972) 
[82, 103]

>  <energy_score>  (972) 
1314.782773460005

>  <distance_score>  (972) 
11.235742026692957

>  <path>  (972) 
/opt/xchem-fragalysis-2/maxwin/BulkDock/SCRATCH/511018/C6181-P103/C6181-P103.minimised.mol

>  <scratch_subdir>  (972) 
/opt/xchem-fragalysis-2/maxwin/BulkDock/SCRATCH/511018/C6181-P103

>  <fragmenstein_runtime>  (972) 
33.978875398635864

>  <fragmenstein_outcome>  (972) 
too moved

>  <fragmenstein_mode>  (972) 
expansion

>  <fragmenstein_error>  (972) 


$$$$
C6182-P82
     RDKit          3D

 43 45  0  0  0  0  0  0  0  0999 V2000
    2.9697  -10.5522   20.2714 C   0  0  0  0  0  0  0  0  0  0  0  0
    1.6147   -9.8448   20.2346 C   0  0  0  0  0  0  0  0  0  0  0  0
    1.0091   -9.6621   18.9073 N   0  0  0  0  0  0  0  0  0  0  0  0
    1.9242   -8.8879   17.9718 C   0  0  0  0  0  0  0  0  0  0  0  0
    2.5795   -7.4609   18.3776 C   0  0  0  0  0  0  0  0  0  0  0  0
    3.5157   -6.9686   17.3312 N   0  0  0  0  0  0  0  0  0  0  0  0
    3.4863   -5.6747   16.9307 C   0  0  0  0  0  0  0  0  0  0  0  0
    3.1099   -4.5870   17.5619 N   0  0  0  0  0  0  0  0  0  0  0  0
    3.3098   -3.5458   16.6756 C   0  0  0  0  0  0  0  0  0  0  0  0
    3.1572   -2.1607   16.8516 C   0  0  0  0  0  0  0  0  0  0  0  0
    3.5389   -1.3015   15.8102 C   0  0  0  0  0  0  0  0  0  0  0  0
    4.0183   -1.8100   14.6024 C   0  0  0  0  0  0  0  0  0  0  0  0
    4.1434   -3.1834   14.3954 C   0  0  0  0  0  0  0  0  0  0  0  0
    3.8068   -4.0151   15.4660 C   0  0  0  0  0  0  0  0  0  0  0  0
    3.8926   -5.3682   15.6571 N   0  0  0  0  0  0  0  0  0  0  0  0
    0.6011  -10.9934   18.3086 C   0  0  0  0  0  0  0  0  0  0  0  0
   -0.3511  -12.0181   19.0406 C   0  0  0  0  0  0  0  0  0  0  0  0
   -1.7397  -11.8785   18.9975 C   0  0  0  0  0  0  0  0  0  0  0  0
   -2.5586  -12.9890   19.2575 C   0  0  0  0  0  0  0  0  0  0  0  0
   -1.9881  -14.2087   19.6045 C   0  0  0  0  0  0  0  0  0  0  0  0
   -0.6196  -14.2457   19.7532 C   0  0  0  0  0  0  0  0  0  0  0  0
    0.1939  -13.1955   19.4563 N   0  0  0  0  0  0  0  0  0  0  0  0
    3.3101  -10.6584   21.3062 H   0  0  0  0  0  0  0  0  0  0  0  0
    2.9190  -11.5561   19.8407 H   0  0  0  0  0  0  0  0  0  0  0  0
    3.7400   -9.9879   19.7380 H   0  0  0  0  0  0  0  0  0  0  0  0
    0.9074  -10.3894   20.8696 H   0  0  0  0  0  0  0  0  0  0  0  0
    1.7195   -8.8607   20.7068 H   0  0  0  0  0  0  0  0  0  0  0  0
    2.7529   -9.5440   17.6734 H   0  0  0  0  0  0  0  0  0  0  0  0
    1.3484   -8.6999   17.0558 H   0  0  0  0  0  0  0  0  0  0  0  0
    3.1436   -7.5741   19.3082 H   0  0  0  0  0  0  0  0  0  0  0  0
    1.7627   -6.7506   18.5510 H   0  0  0  0  0  0  0  0  0  0  0  0
    3.7710   -7.6897   16.6655 H   0  0  0  0  0  0  0  0  0  0  0  0
    2.7901   -1.7718   17.7943 H   0  0  0  0  0  0  0  0  0  0  0  0
    3.4573   -0.2267   15.9494 H   0  0  0  0  0  0  0  0  0  0  0  0
    4.2941   -1.1329   13.7986 H   0  0  0  0  0  0  0  0  0  0  0  0
    4.5019   -3.5639   13.4470 H   0  0  0  0  0  0  0  0  0  0  0  0
    4.1900   -6.0458   14.9771 H   0  0  0  0  0  0  0  0  0  0  0  0
    0.1057  -10.7754   17.3526 H   0  0  0  0  0  0  0  0  0  0  0  0
    1.5073  -11.5542   18.0436 H   0  0  0  0  0  0  0  0  0  0  0  0
   -2.1782  -10.9462   18.6535 H   0  0  0  0  0  0  0  0  0  0  0  0
   -3.6318  -12.8944   19.1306 H   0  0  0  0  0  0  0  0  0  0  0  0
   -2.5766  -15.1034   19.7558 H   0  0  0  0  0  0  0  0  0  0  0  0
   -0.1067  -15.1452   20.0826 H   0  0  0  0  0  0  0  0  0  0  0  0
  1  2  1  0
  2  3  1  0
  3  4  1  0
  4  5  1  0
  5  6  1  0
  6  7  1  0
  7  8  2  0
  8  9  1  0
  9 10  2  0
 10 11  1  0
 11 12  2  0
 12 13  1  0
 13 14  2  0
 14 15  1  0
  3 16  1  0
 16 17  1  0
 17 18  2  0
 18 19  1  0
 19 20  2  0
 20 21  1  0
 21 22  2  0
 15  7  1  0
 22 17  1  0
 14  9  1  0
  1 23  1  0
  1 24  1  0
  1 25  1  0
  2 26  1  0
  2 27  1  0
  4 28  1  0
  4 29  1  0
  5 30  1  0
  5 31  1  0
  6 32  1  0
 10 33  1  0
 11 34  1  0
 12 35  1  0
 13 36  1  0
 15 37  1  0
 16 38  1  0
 16 39  1  0
 18 40  1  0
 19 41  1  0
 20 42  1  0
 21 43  1  0
M  END
>  <Energy>  (973) 
59.120475059174311

>  <compound_id>  (973) 
6182

>  <target_id>  (973) 
1

>  <reference_id>  (973) 
82

>  <inspiration_ids>  (973) 
[82, 103]

>  <energy_score>  (973) 
-38.74862347781527

>  <distance_score>  (973) 
15.260888667447896

>  <path>  (973) 
/opt/xchem-fragalysis-2/maxwin/BulkDock/SCRATCH/511018/C6182-P82/C6182-P82.minimised.mol

>  <scratch_subdir>  (973) 
/opt/xchem-fragalysis-2/maxwin/BulkDock/SCRATCH/511018/C6182-P82

>  <fragmenstein_runtime>  (973) 
19.894153594970703

>  <fragmenstein_outcome>  (973) 
too moved

>  <fragmenstein_mode>  (973) 
expansion

>  <fragmenstein_error>  (973) 


$$$$
C6182-P103
     RDKit          3D

 43 45  0  0  0  0  0  0  0  0999 V2000
    8.5422  -13.8339   25.6834 C   0  0  0  0  0  0  0  0  0  0  0  0
    8.3296  -13.2352   24.3006 C   0  0  0  0  0  0  0  0  0  0  0  0
    6.9685  -12.6999   24.0601 N   0  0  0  0  0  0  0  0  0  0  0  0
    7.0864  -11.7172   22.8622 C   0  0  0  0  0  0  0  0  0  0  0  0
    7.7586  -10.2359   23.0611 C   0  0  0  0  0  0  0  0  0  0  0  0
    8.6220   -9.7938   21.9210 N   0  0  0  0  0  0  0  0  0  0  0  0
    9.1199   -8.5243   21.9418 C   0  0  0  0  0  0  0  0  0  0  0  0
    8.5107   -7.3815   22.1593 N   0  0  0  0  0  0  0  0  0  0  0  0
    9.5033   -6.4254   22.1894 C   0  0  0  0  0  0  0  0  0  0  0  0
    9.4229   -5.0642   22.4970 C   0  0  0  0  0  0  0  0  0  0  0  0
   10.6168   -4.3422   22.5854 C   0  0  0  0  0  0  0  0  0  0  0  0
   11.8498   -4.9185   22.2708 C   0  0  0  0  0  0  0  0  0  0  0  0
   11.9437   -6.2669   21.9295 C   0  0  0  0  0  0  0  0  0  0  0  0
   10.7467   -6.9885   21.9342 C   0  0  0  0  0  0  0  0  0  0  0  0
   10.4627   -8.3144   21.7301 N   0  0  0  0  0  0  0  0  0  0  0  0
    5.9928  -13.8553   23.7143 C   0  0  0  0  0  0  0  0  0  0  0  0
    5.5929  -15.0226   24.7085 C   0  0  0  0  0  0  0  0  0  0  0  0
    5.3803  -14.8373   26.0722 C   0  0  0  0  0  0  0  0  0  0  0  0
    5.0056  -15.9215   26.8918 C   0  0  0  0  0  0  0  0  0  0  0  0
    4.8073  -17.1832   26.3524 C   0  0  0  0  0  0  0  0  0  0  0  0
    5.0158  -17.3049   24.9942 C   0  0  0  0  0  0  0  0  0  0  0  0
    5.3819  -16.2689   24.1753 N   0  0  0  0  0  0  0  0  0  0  0  0
    8.1116  -14.8333   25.7675 H   0  0  0  0  0  0  0  0  0  0  0  0
    8.1249  -13.1928   26.4664 H   0  0  0  0  0  0  0  0  0  0  0  0
    9.6153  -13.9371   25.8796 H   0  0  0  0  0  0  0  0  0  0  0  0
    8.6145  -13.9609   23.5284 H   0  0  0  0  0  0  0  0  0  0  0  0
    9.0528  -12.4140   24.2251 H   0  0  0  0  0  0  0  0  0  0  0  0
    7.6071  -12.2320   22.0439 H   0  0  0  0  0  0  0  0  0  0  0  0
    6.0677  -11.5225   22.5043 H   0  0  0  0  0  0  0  0  0  0  0  0
    8.3729  -10.2550   23.9684 H   0  0  0  0  0  0  0  0  0  0  0  0
    6.9453   -9.5184   23.2236 H   0  0  0  0  0  0  0  0  0  0  0  0
    9.2690  -10.5375   21.6748 H   0  0  0  0  0  0  0  0  0  0  0  0
    8.4697   -4.6125   22.7430 H   0  0  0  0  0  0  0  0  0  0  0  0
   10.5875   -3.3166   22.9375 H   0  0  0  0  0  0  0  0  0  0  0  0
   12.7489   -4.3069   22.3218 H   0  0  0  0  0  0  0  0  0  0  0  0
   12.9013   -6.7280   21.7187 H   0  0  0  0  0  0  0  0  0  0  0  0
   11.1381   -9.0419   21.5683 H   0  0  0  0  0  0  0  0  0  0  0  0
    6.3634  -14.3386   22.8004 H   0  0  0  0  0  0  0  0  0  0  0  0
    5.0356  -13.3861   23.4564 H   0  0  0  0  0  0  0  0  0  0  0  0
    5.5610  -13.8662   26.5193 H   0  0  0  0  0  0  0  0  0  0  0  0
    4.9126  -15.7687   27.9588 H   0  0  0  0  0  0  0  0  0  0  0  0
    4.5260  -18.0301   26.9639 H   0  0  0  0  0  0  0  0  0  0  0  0
    4.8884  -18.2577   24.4884 H   0  0  0  0  0  0  0  0  0  0  0  0
  1  2  1  0
  2  3  1  0
  3  4  1  0
  4  5  1  0
  5  6  1  0
  6  7  1  0
  7  8  2  0
  8  9  1  0
  9 10  2  0
 10 11  1  0
 11 12  2  0
 12 13  1  0
 13 14  2  0
 14 15  1  0
  3 16  1  0
 16 17  1  0
 17 18  2  0
 18 19  1  0
 19 20  2  0
 20 21  1  0
 21 22  2  0
 15  7  1  0
 22 17  1  0
 14  9  1  0
  1 23  1  0
  1 24  1  0
  1 25  1  0
  2 26  1  0
  2 27  1  0
  4 28  1  0
  4 29  1  0
  5 30  1  0
  5 31  1  0
  6 32  1  0
 10 33  1  0
 11 34  1  0
 12 35  1  0
 13 36  1  0
 15 37  1  0
 16 38  1  0
 16 39  1  0
 18 40  1  0
 19 41  1  0
 20 42  1  0
 21 43  1  0
M  END
>  <Energy>  (974) 
65.281665072055659

>  <compound_id>  (974) 
6182

>  <target_id>  (974) 
1

>  <reference_id>  (974) 
103

>  <inspiration_ids>  (974) 
[82, 103]

>  <energy_score>  (974) 
-32.587433464935316

>  <distance_score>  (974) 
14.981008057558926

>  <path>  (974) 
/opt/xchem-fragalysis-2/maxwin/BulkDock/SCRATCH/511018/C6182-P103/C6182-P103.minimised.mol

>  <scratch_subdir>  (974) 
/opt/xchem-fragalysis-2/maxwin/BulkDock/SCRATCH/511018/C6182-P103

>  <fragmenstein_runtime>  (974) 
23.3783016204834

>  <fragmenstein_outcome>  (974) 
too moved

>  <fragmenstein_mode>  (974) 
expansion

>  <fragmenstein_error>  (974) 


$$$$
C6187-P82
     RDKit          3D

 44 46  0  0  0  0  0  0  0  0999 V2000
   -1.5140   -7.0405   25.7954 C   0  0  0  0  0  0  0  0  0  0  0  0
   -1.7365   -7.0313   24.1922 C   0  0  0  0  0  0  0  0  0  0  0  0
   -2.4392   -8.2273   22.7736 C   0  0  0  0  0  0  0  0  0  0  0  0
   -1.2347   -8.7962   22.7825 N   0  0  0  0  0  0  0  0  0  0  0  0
   -2.6918   -9.8740   23.9833 C   0  0  0  0  0  0  0  0  0  0  0  0
   -4.1025  -11.5638   24.3295 C   0  0  0  0  0  0  0  0  0  0  0  0
   -5.8429  -11.8790   24.8221 C   0  0  0  0  0  0  0  0  0  0  0  0
   -6.7074  -13.2347   25.6621 C   0  0  0  0  0  0  0  0  0  0  0  0
   -7.1065  -14.7296   24.9272 N   0  0  0  0  0  0  0  0  0  0  0  0
   -6.3391  -14.4487   23.5375 C   0  0  0  0  0  0  0  0  0  0  0  0
   -5.1716  -13.0600   23.8042 C   0  0  0  0  0  0  0  0  0  0  0  0
    0.5832   -8.0131   23.1879 C   0  0  0  0  0  0  0  0  0  0  0  0
    0.4540   -6.8899   23.5533 O   0  0  0  0  0  0  0  0  0  0  0  0
    2.6649   -8.3747   22.9851 C   0  0  0  0  0  0  0  0  0  0  0  0
    4.8116   -6.9230   22.9513 S   0  0  0  0  0  0  0  0  0  0  0  0
    3.6136   -5.0744   21.2951 C   0  0  0  0  0  0  0  0  0  0  0  0
    3.7219   -3.6236   21.1775 N   0  0  0  0  0  0  0  0  0  0  0  0
    3.4623   -3.2383   19.8909 C   0  0  0  0  0  0  0  0  0  0  0  0
    3.7287   -2.0061   19.2675 C   0  0  0  0  0  0  0  0  0  0  0  0
    3.4597   -1.8691   17.9018 C   0  0  0  0  0  0  0  0  0  0  0  0
    2.9330   -2.9411   17.1787 C   0  0  0  0  0  0  0  0  0  0  0  0
    2.6333   -4.1638   17.7991 C   0  0  0  0  0  0  0  0  0  0  0  0
    2.9077   -4.2724   19.1663 C   0  0  0  0  0  0  0  0  0  0  0  0
    2.6778   -5.2839   20.0846 N   0  0  0  0  0  0  0  0  0  0  0  0
   -2.3888   -6.9915   26.4226 H   0  0  0  0  0  0  0  0  0  0  0  0
   -0.8924   -6.1799   26.0612 H   0  0  0  0  0  0  0  0  0  0  0  0
   -0.9083   -7.8876   26.1423 H   0  0  0  0  0  0  0  0  0  0  0  0
   -0.8967   -7.6165   24.3616 H   0  0  0  0  0  0  0  0  0  0  0  0
   -1.8344   -5.9683   24.0111 H   0  0  0  0  0  0  0  0  0  0  0  0
   -2.2382   -7.9205   21.7536 H   0  0  0  0  0  0  0  0  0  0  0  0
   -3.5180   -8.2480   22.5290 H   0  0  0  0  0  0  0  0  0  0  0  0
   -3.4821   -9.7269   23.2546 H   0  0  0  0  0  0  0  0  0  0  0  0
   -2.5336   -9.3118   24.9079 H   0  0  0  0  0  0  0  0  0  0  0  0
   -6.5137  -11.0349   25.1145 H   0  0  0  0  0  0  0  0  0  0  0  0
   -7.0553  -13.1518   26.6978 H   0  0  0  0  0  0  0  0  0  0  0  0
   -6.2035  -15.2970   22.8813 H   0  0  0  0  0  0  0  0  0  0  0  0
   -4.5296  -13.9717   23.6110 H   0  0  0  0  0  0  0  0  0  0  0  0
    3.1492   -9.3216   23.0417 H   0  0  0  0  0  0  0  0  0  0  0  0
    2.3564   -8.6176   22.0109 H   0  0  0  0  0  0  0  0  0  0  0  0
    4.1526   -1.1931   19.8440 H   0  0  0  0  0  0  0  0  0  0  0  0
    3.6744   -0.9284   17.4008 H   0  0  0  0  0  0  0  0  0  0  0  0
    2.7300   -2.8194   16.1165 H   0  0  0  0  0  0  0  0  0  0  0  0
    2.1853   -4.9778   17.2397 H   0  0  0  0  0  0  0  0  0  0  0  0
    2.1943   -6.1393   19.8854 H   0  0  0  0  0  0  0  0  0  0  0  0
  1  2  1  0
  2  3  1  0
  3  4  1  0
  4  5  1  0
  5  6  1  0
  6  7  2  0
  7  8  1  0
  8  9  2  0
  9 10  1  0
 10 11  2  0
  4 12  1  0
 12 13  2  0
 12 14  1  0
 14 15  1  0
 15 16  1  0
 16 17  2  0
 17 18  1  0
 18 19  2  0
 19 20  1  0
 20 21  2  0
 21 22  1  0
 22 23  2  0
 23 24  1  0
 11  6  1  0
 24 16  1  0
 23 18  1  0
  1 25  1  0
  1 26  1  0
  1 27  1  0
  2 28  1  0
  2 29  1  0
  3 30  1  0
  3 31  1  0
  5 32  1  0
  5 33  1  0
  7 34  1  0
  8 35  1  0
 10 36  1  0
 11 37  1  0
 14 38  1  0
 14 39  1  0
 19 40  1  0
 20 41  1  0
 21 42  1  0
 22 43  1  0
 24 44  1  0
M  END
>  <Energy>  (975) 
2209.8625806116879

>  <compound_id>  (975) 
6187

>  <target_id>  (975) 
1

>  <reference_id>  (975) 
82

>  <inspiration_ids>  (975) 
[82, 103]

>  <energy_score>  (975) 
2158.396915038369

>  <distance_score>  (975) 
13.457783664848996

>  <path>  (975) 
/opt/xchem-fragalysis-2/maxwin/BulkDock/SCRATCH/511018/C6187-P82/C6187-P82.minimised.mol

>  <scratch_subdir>  (975) 
/opt/xchem-fragalysis-2/maxwin/BulkDock/SCRATCH/511018/C6187-P82

>  <fragmenstein_runtime>  (975) 
25.82297396659851

>  <fragmenstein_outcome>  (975) 
too moved

>  <fragmenstein_mode>  (975) 
expansion

>  <fragmenstein_error>  (975) 


$$$$
C6187-P103
     RDKit          3D

 44 46  0  0  0  0  0  0  0  0999 V2000
    5.3827  -18.2721   23.0705 C   0  0  0  0  0  0  0  0  0  0  0  0
    5.2829  -16.8390   22.5647 C   0  0  0  0  0  0  0  0  0  0  0  0
    5.4163  -15.8332   23.7313 C   0  0  0  0  0  0  0  0  0  0  0  0
    5.4859  -14.3783   23.4347 N   0  0  0  0  0  0  0  0  0  0  0  0
    3.8558  -14.5671   23.3172 C   0  0  0  0  0  0  0  0  0  0  0  0
    2.8066  -15.4684   24.1689 C   0  0  0  0  0  0  0  0  0  0  0  0
    2.7289  -15.5462   25.5693 C   0  0  0  0  0  0  0  0  0  0  0  0
    1.7664  -16.3728   26.1843 C   0  0  0  0  0  0  0  0  0  0  0  0
    0.8364  -17.1003   25.5284 N   0  0  0  0  0  0  0  0  0  0  0  0
    0.8777  -16.9946   24.1866 C   0  0  0  0  0  0  0  0  0  0  0  0
    1.8147  -16.2160   23.4868 C   0  0  0  0  0  0  0  0  0  0  0  0
    6.0095  -13.6609   22.2438 C   0  0  0  0  0  0  0  0  0  0  0  0
    6.4213  -14.0902   21.1906 O   0  0  0  0  0  0  0  0  0  0  0  0
    6.1544  -12.0608   22.4274 C   0  0  0  0  0  0  0  0  0  0  0  0
    7.2953  -11.2946   21.0677 S   0  0  0  0  0  0  0  0  0  0  0  0
    8.1002   -9.8208   21.5572 C   0  0  0  0  0  0  0  0  0  0  0  0
    7.7368   -8.5732   21.3201 N   0  0  0  0  0  0  0  0  0  0  0  0
    8.8672   -7.8016   21.5533 C   0  0  0  0  0  0  0  0  0  0  0  0
    9.0698   -6.4136   21.4762 C   0  0  0  0  0  0  0  0  0  0  0  0
   10.3304   -5.8771   21.7723 C   0  0  0  0  0  0  0  0  0  0  0  0
   11.3946   -6.7102   22.1087 C   0  0  0  0  0  0  0  0  0  0  0  0
   11.2270   -8.0980   22.1738 C   0  0  0  0  0  0  0  0  0  0  0  0
    9.9492   -8.6018   21.8972 C   0  0  0  0  0  0  0  0  0  0  0  0
    9.4382   -9.8776   21.8680 N   0  0  0  0  0  0  0  0  0  0  0  0
    5.3091  -18.9747   22.2344 H   0  0  0  0  0  0  0  0  0  0  0  0
    6.3381  -18.4454   23.5761 H   0  0  0  0  0  0  0  0  0  0  0  0
    4.5744  -18.4953   23.7743 H   0  0  0  0  0  0  0  0  0  0  0  0
    6.0846  -16.6663   21.8373 H   0  0  0  0  0  0  0  0  0  0  0  0
    4.3428  -16.7361   22.0173 H   0  0  0  0  0  0  0  0  0  0  0  0
    4.9667  -16.1133   24.6869 H   0  0  0  0  0  0  0  0  0  0  0  0
    6.4718  -15.9874   24.0187 H   0  0  0  0  0  0  0  0  0  0  0  0
    3.6628  -14.7383   22.2478 H   0  0  0  0  0  0  0  0  0  0  0  0
    3.5130  -13.5392   23.4900 H   0  0  0  0  0  0  0  0  0  0  0  0
    3.4291  -14.9984   26.1913 H   0  0  0  0  0  0  0  0  0  0  0  0
    1.7400  -16.4707   27.2659 H   0  0  0  0  0  0  0  0  0  0  0  0
    0.1258  -17.5662   23.6504 H   0  0  0  0  0  0  0  0  0  0  0  0
    1.7651  -16.1879   22.4002 H   0  0  0  0  0  0  0  0  0  0  0  0
    5.1717  -11.6151   22.2911 H   0  0  0  0  0  0  0  0  0  0  0  0
    6.5827  -11.8435   23.4079 H   0  0  0  0  0  0  0  0  0  0  0  0
    8.2596   -5.7650   21.1971 H   0  0  0  0  0  0  0  0  0  0  0  0
   10.4867   -4.8019   21.7286 H   0  0  0  0  0  0  0  0  0  0  0  0
   12.3681   -6.2730   22.3231 H   0  0  0  0  0  0  0  0  0  0  0  0
   12.0542   -8.7494   22.4368 H   0  0  0  0  0  0  0  0  0  0  0  0
    9.9599  -10.7329   21.9819 H   0  0  0  0  0  0  0  0  0  0  0  0
  1  2  1  0
  2  3  1  0
  3  4  1  0
  4  5  1  0
  5  6  1  0
  6  7  2  0
  7  8  1  0
  8  9  2  0
  9 10  1  0
 10 11  2  0
  4 12  1  0
 12 13  2  0
 12 14  1  0
 14 15  1  0
 15 16  1  0
 16 17  2  0
 17 18  1  0
 18 19  2  0
 19 20  1  0
 20 21  2  0
 21 22  1  0
 22 23  2  0
 23 24  1  0
 11  6  1  0
 24 16  1  0
 23 18  1  0
  1 25  1  0
  1 26  1  0
  1 27  1  0
  2 28  1  0
  2 29  1  0
  3 30  1  0
  3 31  1  0
  5 32  1  0
  5 33  1  0
  7 34  1  0
  8 35  1  0
 10 36  1  0
 11 37  1  0
 14 38  1  0
 14 39  1  0
 19 40  1  0
 20 41  1  0
 21 42  1  0
 22 43  1  0
 24 44  1  0
M  END
>  <Energy>  (976) 
139.08055238741241

>  <compound_id>  (976) 
6187

>  <target_id>  (976) 
1

>  <reference_id>  (976) 
103

>  <inspiration_ids>  (976) 
[82, 103]

>  <energy_score>  (976) 
87.6148868140823

>  <distance_score>  (976) 
14.37697486600278

>  <path>  (976) 
/opt/xchem-fragalysis-2/maxwin/BulkDock/SCRATCH/511018/C6187-P103/C6187-P103.minimised.mol

>  <scratch_subdir>  (976) 
/opt/xchem-fragalysis-2/maxwin/BulkDock/SCRATCH/511018/C6187-P103

>  <fragmenstein_runtime>  (976) 
46.590341329574585

>  <fragmenstein_outcome>  (976) 
too moved

>  <fragmenstein_mode>  (976) 
expansion

>  <fragmenstein_error>  (976) 


$$$$
C6188-P82
     RDKit          3D

 45 48  0  0  0  0  0  0  0  0999 V2000
    2.9940  -14.8847   20.8442 O   0  0  0  0  0  0  0  0  0  0  0  0
    3.4239  -13.9378   21.3970 C   0  0  0  0  0  0  0  0  0  0  0  0
    4.5741  -12.9594   20.8360 N   0  0  0  0  0  0  0  0  0  0  0  0
    5.4373  -13.0419   19.5866 C   0  0  0  0  0  0  0  0  0  0  0  0
    6.2381  -11.7925   18.8820 C   0  0  0  0  0  0  0  0  0  0  0  0
    7.2045  -10.8515   19.6012 C   0  0  0  0  0  0  0  0  0  0  0  0
    7.0837   -9.5313   19.7011 N   0  0  0  0  0  0  0  0  0  0  0  0
    8.1676   -9.0877   20.4308 C   0  0  0  0  0  0  0  0  0  0  0  0
    8.4558   -7.8200   20.9743 C   0  0  0  0  0  0  0  0  0  0  0  0
    9.6680   -7.6165   21.6406 C   0  0  0  0  0  0  0  0  0  0  0  0
   10.5892   -8.6577   21.7510 C   0  0  0  0  0  0  0  0  0  0  0  0
   10.3222   -9.9285   21.2197 C   0  0  0  0  0  0  0  0  0  0  0  0
    9.0868  -10.1104   20.5886 C   0  0  0  0  0  0  0  0  0  0  0  0
    8.4660  -11.2113   20.0366 N   0  0  0  0  0  0  0  0  0  0  0  0
    2.7794  -13.2248   23.0484 N   0  0  0  0  0  0  0  0  0  0  0  0
    1.2046  -13.7569   24.1150 C   0  0  0  0  0  0  0  0  0  0  0  0
   -0.6685  -14.4403   24.3283 C   0  0  0  0  0  0  0  0  0  0  0  0
   -1.7342  -14.9325   25.3470 N   0  0  0  0  0  0  0  0  0  0  0  0
   -2.4493  -16.5641   25.1230 C   0  0  0  0  0  0  0  0  0  0  0  0
   -2.0092  -18.5244   25.1768 C   0  0  0  0  0  0  0  0  0  0  0  0
   -1.5833  -19.6447   23.5735 C   0  0  0  0  0  0  0  0  0  0  0  0
   -2.2220  -20.8831   23.1598 C   0  0  0  0  0  0  0  0  0  0  0  0
   -3.3089  -21.2430   23.9228 C   0  0  0  0  0  0  0  0  0  0  0  0
   -3.4945  -20.5216   25.1212 C   0  0  0  0  0  0  0  0  0  0  0  0
   -2.6471  -19.4542   25.9091 N   0  0  0  0  0  0  0  0  0  0  0  0
   -2.8506  -15.6832   24.0697 N   0  0  0  0  0  0  0  0  0  0  0  0
   -1.4906  -15.1681   23.5129 N   0  0  0  0  0  0  0  0  0  0  0  0
    4.6780  -12.2067   21.4516 H   0  0  0  0  0  0  0  0  0  0  0  0
    6.2031  -13.7803   19.8532 H   0  0  0  0  0  0  0  0  0  0  0  0
    4.8099  -13.5126   18.8211 H   0  0  0  0  0  0  0  0  0  0  0  0
    6.8217  -12.2590   18.0746 H   0  0  0  0  0  0  0  0  0  0  0  0
    5.5025  -11.1733   18.3530 H   0  0  0  0  0  0  0  0  0  0  0  0
    7.7454   -7.0139   20.8735 H   0  0  0  0  0  0  0  0  0  0  0  0
    9.8999   -6.6405   22.0601 H   0  0  0  0  0  0  0  0  0  0  0  0
   11.5324   -8.4845   22.2663 H   0  0  0  0  0  0  0  0  0  0  0  0
   11.0337  -10.7405   21.3282 H   0  0  0  0  0  0  0  0  0  0  0  0
    8.8559  -12.1412   19.9952 H   0  0  0  0  0  0  0  0  0  0  0  0
    3.2528  -12.3800   23.2619 H   0  0  0  0  0  0  0  0  0  0  0  0
    1.5223  -13.3515   25.1427 H   0  0  0  0  0  0  0  0  0  0  0  0
    1.3404  -14.6409   23.4813 H   0  0  0  0  0  0  0  0  0  0  0  0
   -0.8383  -19.3400   22.8115 H   0  0  0  0  0  0  0  0  0  0  0  0
   -1.9503  -21.3800   22.2381 H   0  0  0  0  0  0  0  0  0  0  0  0
   -4.0031  -22.0192   23.6269 H   0  0  0  0  0  0  0  0  0  0  0  0
   -4.4493  -20.7104   25.6290 H   0  0  0  0  0  0  0  0  0  0  0  0
   -1.3764  -15.2220   22.5048 H   0  0  0  0  0  0  0  0  0  0  0  0
  1  2  2  0
  2  3  1  0
  3  4  1  0
  4  5  1  0
  5  6  1  0
  6  7  2  0
  7  8  1  0
  8  9  2  0
  9 10  1  0
 10 11  2  0
 11 12  1  0
 12 13  2  0
 13 14  1  0
  2 15  1  0
 15 16  1  0
 16 17  1  0
 17 18  2  0
 18 19  1  0
 19 20  1  0
 20 21  2  0
 21 22  1  0
 22 23  2  0
 23 24  1  0
 24 25  2  0
 19 26  2  0
 26 27  1  0
 14  6  1  0
 27 17  1  0
 13  8  1  0
 25 20  1  0
  3 28  1  0
  4 29  1  0
  4 30  1  0
  5 31  1  0
  5 32  1  0
  9 33  1  0
 10 34  1  0
 11 35  1  0
 12 36  1  0
 14 37  1  0
 15 38  1  0
 16 39  1  0
 16 40  1  0
 21 41  1  0
 22 42  1  0
 23 43  1  0
 24 44  1  0
 27 45  1  0
M  END
>  <Energy>  (977) 
802.59074026925941

>  <compound_id>  (977) 
6188

>  <target_id>  (977) 
1

>  <reference_id>  (977) 
82

>  <inspiration_ids>  (977) 
[82, 103]

>  <energy_score>  (977) 
788.5664943764239

>  <distance_score>  (977) 
12.676692658172161

>  <path>  (977) 
/opt/xchem-fragalysis-2/maxwin/BulkDock/SCRATCH/511018/C6188-P82/C6188-P82.minimised.mol

>  <scratch_subdir>  (977) 
/opt/xchem-fragalysis-2/maxwin/BulkDock/SCRATCH/511018/C6188-P82

>  <fragmenstein_runtime>  (977) 
45.159802198410034

>  <fragmenstein_outcome>  (977) 
too moved

>  <fragmenstein_mode>  (977) 
expansion

>  <fragmenstein_error>  (977) 


$$$$
C6188-P103
     RDKit          3D

 45 48  0  0  0  0  0  0  0  0999 V2000
    6.1912  -12.2753   20.4667 O   0  0  0  0  0  0  0  0  0  0  0  0
    6.0702  -11.3297   21.1807 C   0  0  0  0  0  0  0  0  0  0  0  0
    6.9708  -10.1933   21.4191 N   0  0  0  0  0  0  0  0  0  0  0  0
    8.3435   -9.9142   20.9274 C   0  0  0  0  0  0  0  0  0  0  0  0
    8.5990   -8.3754   21.2611 C   0  0  0  0  0  0  0  0  0  0  0  0
    9.9434   -7.7535   21.4902 C   0  0  0  0  0  0  0  0  0  0  0  0
   11.1231   -8.3114   21.6585 N   0  0  0  0  0  0  0  0  0  0  0  0
   12.0271   -7.2709   21.8102 C   0  0  0  0  0  0  0  0  0  0  0  0
   13.4281   -7.2879   21.8928 C   0  0  0  0  0  0  0  0  0  0  0  0
   14.1247   -6.0709   21.9046 C   0  0  0  0  0  0  0  0  0  0  0  0
   13.4395   -4.8588   21.8976 C   0  0  0  0  0  0  0  0  0  0  0  0
   12.0446   -4.8287   21.8754 C   0  0  0  0  0  0  0  0  0  0  0  0
   11.3778   -6.0496   21.7958 C   0  0  0  0  0  0  0  0  0  0  0  0
   10.0564   -6.3775   21.6494 N   0  0  0  0  0  0  0  0  0  0  0  0
    4.7910  -10.9972   22.3291 N   0  0  0  0  0  0  0  0  0  0  0  0
    3.3234  -12.0682   22.8727 C   0  0  0  0  0  0  0  0  0  0  0  0
    1.6605  -12.1361   23.5624 C   0  0  0  0  0  0  0  0  0  0  0  0
    0.1260  -12.7510   22.8705 N   0  0  0  0  0  0  0  0  0  0  0  0
   -0.7518  -14.1985   23.6386 C   0  0  0  0  0  0  0  0  0  0  0  0
   -2.5147  -15.2194   23.7925 C   0  0  0  0  0  0  0  0  0  0  0  0
   -4.0004  -15.0901   23.8152 C   0  0  0  0  0  0  0  0  0  0  0  0
   -5.7101  -15.1801   23.0726 C   0  0  0  0  0  0  0  0  0  0  0  0
   -5.9965  -15.9099   21.9217 C   0  0  0  0  0  0  0  0  0  0  0  0
   -4.7642  -16.2741   21.6134 C   0  0  0  0  0  0  0  0  0  0  0  0
   -3.6760  -15.7046   22.7899 N   0  0  0  0  0  0  0  0  0  0  0  0
    0.3693  -14.2835   24.4451 N   0  0  0  0  0  0  0  0  0  0  0  0
    1.6601  -13.1547   24.4980 N   0  0  0  0  0  0  0  0  0  0  0  0
    6.5964   -9.6300   22.1354 H   0  0  0  0  0  0  0  0  0  0  0  0
    8.4022  -10.1233   19.8566 H   0  0  0  0  0  0  0  0  0  0  0  0
    9.0336  -10.5594   21.4773 H   0  0  0  0  0  0  0  0  0  0  0  0
    8.1297   -8.1823   22.2307 H   0  0  0  0  0  0  0  0  0  0  0  0
    8.0218   -7.7761   20.5494 H   0  0  0  0  0  0  0  0  0  0  0  0
   13.9599   -8.2335   21.8953 H   0  0  0  0  0  0  0  0  0  0  0  0
   15.2118   -6.0773   21.9341 H   0  0  0  0  0  0  0  0  0  0  0  0
   13.9915   -3.9212   21.9245 H   0  0  0  0  0  0  0  0  0  0  0  0
   11.5102   -3.8920   21.8804 H   0  0  0  0  0  0  0  0  0  0  0  0
    9.3042   -5.7108   21.5828 H   0  0  0  0  0  0  0  0  0  0  0  0
    5.0076  -10.1553   22.8478 H   0  0  0  0  0  0  0  0  0  0  0  0
    3.3455  -12.9042   22.2009 H   0  0  0  0  0  0  0  0  0  0  0  0
    2.9094  -11.1061   22.6919 H   0  0  0  0  0  0  0  0  0  0  0  0
   -4.1061  -15.6311   24.7708 H   0  0  0  0  0  0  0  0  0  0  0  0
   -6.5441  -14.5961   23.4646 H   0  0  0  0  0  0  0  0  0  0  0  0
   -6.9185  -16.0283   21.3963 H   0  0  0  0  0  0  0  0  0  0  0  0
   -4.2988  -16.7839   20.7860 H   0  0  0  0  0  0  0  0  0  0  0  0
    2.1290  -13.1125   25.3913 H   0  0  0  0  0  0  0  0  0  0  0  0
  1  2  2  0
  2  3  1  0
  3  4  1  0
  4  5  1  0
  5  6  1  0
  6  7  2  0
  7  8  1  0
  8  9  2  0
  9 10  1  0
 10 11  2  0
 11 12  1  0
 12 13  2  0
 13 14  1  0
  2 15  1  0
 15 16  1  0
 16 17  1  0
 17 18  2  0
 18 19  1  0
 19 20  1  0
 20 21  2  0
 21 22  1  0
 22 23  2  0
 23 24  1  0
 24 25  2  0
 19 26  2  0
 26 27  1  0
 14  6  1  0
 27 17  1  0
 13  8  1  0
 25 20  1  0
  3 28  1  0
  4 29  1  0
  4 30  1  0
  5 31  1  0
  5 32  1  0
  9 33  1  0
 10 34  1  0
 11 35  1  0
 12 36  1  0
 14 37  1  0
 15 38  1  0
 16 39  1  0
 16 40  1  0
 21 41  1  0
 22 42  1  0
 23 43  1  0
 24 44  1  0
 27 45  1  0
M  END
>  <Energy>  (978) 
958.85241075106762

>  <compound_id>  (978) 
6188

>  <target_id>  (978) 
1

>  <reference_id>  (978) 
103

>  <inspiration_ids>  (978) 
[82, 103]

>  <energy_score>  (978) 
944.8281648582258

>  <distance_score>  (978) 
11.81521455889115

>  <path>  (978) 
/opt/xchem-fragalysis-2/maxwin/BulkDock/SCRATCH/511018/C6188-P103/C6188-P103.minimised.mol

>  <scratch_subdir>  (978) 
/opt/xchem-fragalysis-2/maxwin/BulkDock/SCRATCH/511018/C6188-P103

>  <fragmenstein_runtime>  (978) 
53.07139039039612

>  <fragmenstein_outcome>  (978) 
too moved

>  <fragmenstein_mode>  (978) 
expansion

>  <fragmenstein_error>  (978) 


$$$$
C6189-P82
     RDKit          3D

 37 40  0  0  0  0  0  0  0  0999 V2000
    9.5773  -12.8132   21.8789 C   0  0  0  0  0  0  0  0  0  0  0  0
   10.2592  -11.8812   22.7189 O   0  0  0  0  0  0  0  0  0  0  0  0
   10.3673  -12.3467   24.0673 C   0  0  0  0  0  0  0  0  0  0  0  0
    9.1100  -12.0590   24.8044 C   0  0  0  0  0  0  0  0  0  0  0  0
    8.3978  -12.9912   25.4061 N   0  0  0  0  0  0  0  0  0  0  0  0
    7.4128  -12.3291   26.1080 C   0  0  0  0  0  0  0  0  0  0  0  0
    6.4161  -13.1828   26.9543 C   0  0  0  0  0  0  0  0  0  0  0  0
    5.9228  -12.7817   28.2009 C   0  0  0  0  0  0  0  0  0  0  0  0
    5.0091  -13.6010   28.9153 C   0  0  0  0  0  0  0  0  0  0  0  0
    4.6063  -14.8223   28.3907 C   0  0  0  0  0  0  0  0  0  0  0  0
    5.1554  -15.1809   27.1744 C   0  0  0  0  0  0  0  0  0  0  0  0
    6.0364  -14.4106   26.4626 N   0  0  0  0  0  0  0  0  0  0  0  0
    7.5176  -10.9652   25.9548 N   0  0  0  0  0  0  0  0  0  0  0  0
    8.5554  -10.7952   25.0188 N   0  0  0  0  0  0  0  0  0  0  0  0
    8.9350   -9.5134   24.4590 C   0  0  0  0  0  0  0  0  0  0  0  0
    8.4115   -8.3183   24.7090 N   0  0  0  0  0  0  0  0  0  0  0  0
    9.0205   -7.4188   23.8338 C   0  0  0  0  0  0  0  0  0  0  0  0
    8.7819   -6.0525   23.5892 C   0  0  0  0  0  0  0  0  0  0  0  0
    9.5794   -5.3673   22.6556 C   0  0  0  0  0  0  0  0  0  0  0  0
   10.6107   -6.0224   21.9845 C   0  0  0  0  0  0  0  0  0  0  0  0
   10.8514   -7.3850   22.1969 C   0  0  0  0  0  0  0  0  0  0  0  0
   10.0208   -8.0471   23.1096 C   0  0  0  0  0  0  0  0  0  0  0  0
    9.9285   -9.3627   23.4996 N   0  0  0  0  0  0  0  0  0  0  0  0
    9.5417  -12.3956   20.8690 H   0  0  0  0  0  0  0  0  0  0  0  0
   10.1181  -13.7636   21.8444 H   0  0  0  0  0  0  0  0  0  0  0  0
    8.5527  -12.9701   22.2248 H   0  0  0  0  0  0  0  0  0  0  0  0
   10.6154  -13.4141   24.0893 H   0  0  0  0  0  0  0  0  0  0  0  0
   11.1987  -11.8135   24.5411 H   0  0  0  0  0  0  0  0  0  0  0  0
    6.2384  -11.8284   28.6158 H   0  0  0  0  0  0  0  0  0  0  0  0
    4.6329  -13.2684   29.8792 H   0  0  0  0  0  0  0  0  0  0  0  0
    3.9159  -15.4728   28.9117 H   0  0  0  0  0  0  0  0  0  0  0  0
    4.9104  -16.1299   26.7054 H   0  0  0  0  0  0  0  0  0  0  0  0
    7.9872   -5.5473   24.1279 H   0  0  0  0  0  0  0  0  0  0  0  0
    9.4077   -4.3092   22.4792 H   0  0  0  0  0  0  0  0  0  0  0  0
   11.2363   -5.4625   21.2913 H   0  0  0  0  0  0  0  0  0  0  0  0
   11.6508   -7.9031   21.6828 H   0  0  0  0  0  0  0  0  0  0  0  0
   10.4346  -10.1207   23.0616 H   0  0  0  0  0  0  0  0  0  0  0  0
  1  2  1  0
  2  3  1  0
  3  4  1  0
  4  5  2  0
  5  6  1  0
  6  7  1  0
  7  8  2  0
  8  9  1  0
  9 10  2  0
 10 11  1  0
 11 12  2  0
  6 13  2  0
 13 14  1  0
 14 15  1  0
 15 16  2  0
 16 17  1  0
 17 18  2  0
 18 19  1  0
 19 20  2  0
 20 21  1  0
 21 22  2  0
 22 23  1  0
 14  4  1  0
 23 15  1  0
 12  7  1  0
 22 17  1  0
  1 24  1  0
  1 25  1  0
  1 26  1  0
  3 27  1  0
  3 28  1  0
  8 29  1  0
  9 30  1  0
 10 31  1  0
 11 32  1  0
 18 33  1  0
 19 34  1  0
 20 35  1  0
 21 36  1  0
 23 37  1  0
M  END
>  <Energy>  (979) 
114.94415707576482

>  <compound_id>  (979) 
6189

>  <target_id>  (979) 
1

>  <reference_id>  (979) 
82

>  <inspiration_ids>  (979) 
[82, 103]

>  <energy_score>  (979) 
-9.684521946518998

>  <distance_score>  (979) 
16.119478908137367

>  <path>  (979) 
/opt/xchem-fragalysis-2/maxwin/BulkDock/SCRATCH/511018/C6189-P82/C6189-P82.minimised.mol

>  <scratch_subdir>  (979) 
/opt/xchem-fragalysis-2/maxwin/BulkDock/SCRATCH/511018/C6189-P82

>  <fragmenstein_runtime>  (979) 
37.13068628311157

>  <fragmenstein_outcome>  (979) 
too moved

>  <fragmenstein_mode>  (979) 
expansion

>  <fragmenstein_error>  (979) 


$$$$
C6189-P103
     RDKit          3D

 37 40  0  0  0  0  0  0  0  0999 V2000
    4.4552  -16.2225   10.5753 C   0  0  0  0  0  0  0  0  0  0  0  0
    3.1659  -15.8979   10.0825 O   0  0  0  0  0  0  0  0  0  0  0  0
    2.7492  -14.5568   10.3496 C   0  0  0  0  0  0  0  0  0  0  0  0
    2.3635  -14.4121   11.7807 C   0  0  0  0  0  0  0  0  0  0  0  0
    1.6115  -15.2602   12.4725 N   0  0  0  0  0  0  0  0  0  0  0  0
    1.3316  -14.6277   13.6738 C   0  0  0  0  0  0  0  0  0  0  0  0
    0.5714  -15.4139   14.8278 C   0  0  0  0  0  0  0  0  0  0  0  0
   -0.8042  -15.7071   14.7507 C   0  0  0  0  0  0  0  0  0  0  0  0
   -1.4774  -16.3571   15.8170 C   0  0  0  0  0  0  0  0  0  0  0  0
   -0.7718  -16.7359   16.9500 C   0  0  0  0  0  0  0  0  0  0  0  0
    0.5878  -16.4704   16.9463 C   0  0  0  0  0  0  0  0  0  0  0  0
    1.2717  -15.8597   15.9206 N   0  0  0  0  0  0  0  0  0  0  0  0
    1.8301  -13.3375   13.6518 N   0  0  0  0  0  0  0  0  0  0  0  0
    2.6763  -13.2960   12.5580 N   0  0  0  0  0  0  0  0  0  0  0  0
    3.8001  -12.3729   12.4744 C   0  0  0  0  0  0  0  0  0  0  0  0
    3.9556  -11.2041   13.0779 N   0  0  0  0  0  0  0  0  0  0  0  0
    5.1190  -10.6313   12.5775 C   0  0  0  0  0  0  0  0  0  0  0  0
    5.6499   -9.3330   12.6804 C   0  0  0  0  0  0  0  0  0  0  0  0
    6.9081   -9.0609   12.1286 C   0  0  0  0  0  0  0  0  0  0  0  0
    7.6215  -10.0474   11.4556 C   0  0  0  0  0  0  0  0  0  0  0  0
    7.0943  -11.3311   11.3036 C   0  0  0  0  0  0  0  0  0  0  0  0
    5.8282  -11.5710   11.8521 C   0  0  0  0  0  0  0  0  0  0  0  0
    4.9776  -12.6549   11.7982 N   0  0  0  0  0  0  0  0  0  0  0  0
    5.2111  -15.5773   10.1180 H   0  0  0  0  0  0  0  0  0  0  0  0
    4.4961  -16.1361   11.6650 H   0  0  0  0  0  0  0  0  0  0  0  0
    4.6755  -17.2586   10.3040 H   0  0  0  0  0  0  0  0  0  0  0  0
    3.5095  -13.8538   10.0040 H   0  0  0  0  0  0  0  0  0  0  0  0
    1.8571  -14.3771    9.7394 H   0  0  0  0  0  0  0  0  0  0  0  0
   -1.3607  -15.3812   13.8775 H   0  0  0  0  0  0  0  0  0  0  0  0
   -2.5450  -16.5405   15.7448 H   0  0  0  0  0  0  0  0  0  0  0  0
   -1.2488  -17.2189   17.7927 H   0  0  0  0  0  0  0  0  0  0  0  0
    1.2111  -16.7398   17.7961 H   0  0  0  0  0  0  0  0  0  0  0  0
    5.0792   -8.5534   13.1664 H   0  0  0  0  0  0  0  0  0  0  0  0
    7.3316   -8.0686   12.2107 H   0  0  0  0  0  0  0  0  0  0  0  0
    8.5830   -9.8086   11.0058 H   0  0  0  0  0  0  0  0  0  0  0  0
    7.6286  -12.0894   10.7408 H   0  0  0  0  0  0  0  0  0  0  0  0
    5.2000  -13.5214   11.3360 H   0  0  0  0  0  0  0  0  0  0  0  0
  1  2  1  0
  2  3  1  0
  3  4  1  0
  4  5  2  0
  5  6  1  0
  6  7  1  0
  7  8  2  0
  8  9  1  0
  9 10  2  0
 10 11  1  0
 11 12  2  0
  6 13  2  0
 13 14  1  0
 14 15  1  0
 15 16  2  0
 16 17  1  0
 17 18  2  0
 18 19  1  0
 19 20  2  0
 20 21  1  0
 21 22  2  0
 22 23  1  0
 14  4  1  0
 23 15  1  0
 12  7  1  0
 22 17  1  0
  1 24  1  0
  1 25  1  0
  1 26  1  0
  3 27  1  0
  3 28  1  0
  8 29  1  0
  9 30  1  0
 10 31  1  0
 11 32  1  0
 18 33  1  0
 19 34  1  0
 20 35  1  0
 21 36  1  0
 23 37  1  0
M  END
>  <Energy>  (980) 
138.51230697194566

>  <compound_id>  (980) 
6189

>  <target_id>  (980) 
1

>  <reference_id>  (980) 
103

>  <inspiration_ids>  (980) 
[82, 103]

>  <energy_score>  (980) 
13.883627949661218

>  <distance_score>  (980) 
17.792468114175318

>  <path>  (980) 
/opt/xchem-fragalysis-2/maxwin/BulkDock/SCRATCH/511018/C6189-P103/C6189-P103.minimised.mol

>  <scratch_subdir>  (980) 
/opt/xchem-fragalysis-2/maxwin/BulkDock/SCRATCH/511018/C6189-P103

>  <fragmenstein_runtime>  (980) 
28.342753171920776

>  <fragmenstein_outcome>  (980) 
too moved

>  <fragmenstein_mode>  (980) 
expansion

>  <fragmenstein_error>  (980) 


$$$$
C6190-P82
     RDKit          3D

 33 36  0  0  0  0  0  0  0  0999 V2000
    1.0533   -8.6137   18.6449 F   0  0  0  0  0  0  0  0  0  0  0  0
    1.9177   -9.5242   17.8154 C   0  0  0  0  0  0  0  0  0  0  0  0
    2.6909   -8.6111   17.1030 F   0  0  0  0  0  0  0  0  0  0  0  0
    2.6192  -11.4191   18.2989 C   0  0  0  0  0  0  0  0  0  0  0  0
    1.1844  -12.8131   18.6507 N   0  0  0  0  0  0  0  0  0  0  0  0
   -0.0482  -11.6318   20.0238 C   0  0  0  0  0  0  0  0  0  0  0  0
   -1.6639  -11.6732   19.6922 C   0  0  0  0  0  0  0  0  0  0  0  0
   -2.1898  -12.5534   18.6764 C   0  0  0  0  0  0  0  0  0  0  0  0
   -3.4816  -13.0336   18.6224 C   0  0  0  0  0  0  0  0  0  0  0  0
   -4.3063  -12.4916   19.5286 C   0  0  0  0  0  0  0  0  0  0  0  0
   -3.7620  -11.4877   20.3448 C   0  0  0  0  0  0  0  0  0  0  0  0
   -2.4825  -11.1132   20.5470 N   0  0  0  0  0  0  0  0  0  0  0  0
    1.2166  -10.1169   20.4310 N   0  0  0  0  0  0  0  0  0  0  0  0
    2.5425   -9.6040   18.9468 N   0  0  0  0  0  0  0  0  0  0  0  0
    4.2294   -8.5645   18.3177 C   0  0  0  0  0  0  0  0  0  0  0  0
    5.0439   -7.0852   17.5325 N   0  0  0  0  0  0  0  0  0  0  0  0
    6.7299   -6.0144   17.2909 C   0  0  0  0  0  0  0  0  0  0  0  0
    8.0639   -4.7941   16.3187 C   0  0  0  0  0  0  0  0  0  0  0  0
   10.0995   -4.5663   16.9679 C   0  0  0  0  0  0  0  0  0  0  0  0
   10.2149   -5.5173   18.7225 C   0  0  0  0  0  0  0  0  0  0  0  0
    8.7810   -6.3120   19.7549 C   0  0  0  0  0  0  0  0  0  0  0  0
    7.0702   -6.5604   18.8926 C   0  0  0  0  0  0  0  0  0  0  0  0
    5.5484   -7.6386   19.0963 N   0  0  0  0  0  0  0  0  0  0  0  0
    1.1484   -9.3176   17.1529 H   0  0  0  0  0  0  0  0  0  0  0  0
   -1.5383  -13.0429   17.9763 H   0  0  0  0  0  0  0  0  0  0  0  0
   -3.7948  -13.7730   17.8963 H   0  0  0  0  0  0  0  0  0  0  0  0
   -5.3451  -12.7913   19.5838 H   0  0  0  0  0  0  0  0  0  0  0  0
   -4.4178  -10.9481   20.9947 H   0  0  0  0  0  0  0  0  0  0  0  0
    7.8255   -3.9062   15.6621 H   0  0  0  0  0  0  0  0  0  0  0  0
   10.8934   -4.0178   16.4573 H   0  0  0  0  0  0  0  0  0  0  0  0
   11.1766   -5.4527   19.3205 H   0  0  0  0  0  0  0  0  0  0  0  0
    8.9242   -6.8003   20.7180 H   0  0  0  0  0  0  0  0  0  0  0  0
    5.5955   -7.9737   20.0254 H   0  0  0  0  0  0  0  0  0  0  0  0
  1  2  1  0
  2  3  1  0
  2  4  1  0
  4  5  2  0
  5  6  1  0
  6  7  1  0
  7  8  2  0
  8  9  1  0
  9 10  2  0
 10 11  1  0
 11 12  2  0
  6 13  2  0
 13 14  1  0
 14 15  1  0
 15 16  2  0
 16 17  1  0
 17 18  2  0
 18 19  1  0
 19 20  2  0
 20 21  1  0
 21 22  2  0
 22 23  1  0
 14  4  1  0
 23 15  1  0
 12  7  1  0
 22 17  1  0
  2 24  1  0
  8 25  1  0
  9 26  1  0
 10 27  1  0
 11 28  1  0
 18 29  1  0
 19 30  1  0
 20 31  1  0
 21 32  1  0
 23 33  1  0
M  END
>  <Energy>  (981) 
2835.4146281408307

>  <compound_id>  (981) 
6190

>  <target_id>  (981) 
1

>  <reference_id>  (981) 
82

>  <inspiration_ids>  (981) 
[82, 103]

>  <energy_score>  (981) 
2702.5546554327593

>  <distance_score>  (981) 
15.02296570892246

>  <path>  (981) 
/opt/xchem-fragalysis-2/maxwin/BulkDock/SCRATCH/511018/C6190-P82/C6190-P82.minimised.mol

>  <scratch_subdir>  (981) 
/opt/xchem-fragalysis-2/maxwin/BulkDock/SCRATCH/511018/C6190-P82

>  <fragmenstein_runtime>  (981) 
14.754514455795288

>  <fragmenstein_outcome>  (981) 
too moved

>  <fragmenstein_mode>  (981) 
expansion

>  <fragmenstein_error>  (981) 


$$$$
C6190-P103
     RDKit          3D

 33 36  0  0  0  0  0  0  0  0999 V2000
    6.5763   -7.0405   26.4102 F   0  0  0  0  0  0  0  0  0  0  0  0
    7.2848   -7.8398   27.2555 C   0  0  0  0  0  0  0  0  0  0  0  0
    8.5439   -7.3322   27.2814 F   0  0  0  0  0  0  0  0  0  0  0  0
    7.2642   -9.2419   26.7993 C   0  0  0  0  0  0  0  0  0  0  0  0
    6.7167  -10.2554   27.4489 N   0  0  0  0  0  0  0  0  0  0  0  0
    7.0273  -11.3928   26.7090 C   0  0  0  0  0  0  0  0  0  0  0  0
    6.3712  -12.7448   27.1813 C   0  0  0  0  0  0  0  0  0  0  0  0
    5.7459  -12.8156   28.4517 C   0  0  0  0  0  0  0  0  0  0  0  0
    4.9487  -13.9208   28.8319 C   0  0  0  0  0  0  0  0  0  0  0  0
    4.7867  -14.9711   27.9469 C   0  0  0  0  0  0  0  0  0  0  0  0
    5.4486  -14.8649   26.7324 C   0  0  0  0  0  0  0  0  0  0  0  0
    6.2258  -13.7986   26.3356 N   0  0  0  0  0  0  0  0  0  0  0  0
    7.7832  -11.0676   25.6078 N   0  0  0  0  0  0  0  0  0  0  0  0
    7.8907   -9.6714   25.6365 N   0  0  0  0  0  0  0  0  0  0  0  0
    8.5647   -8.8899   24.6243 C   0  0  0  0  0  0  0  0  0  0  0  0
    9.5004   -9.2889   23.7710 N   0  0  0  0  0  0  0  0  0  0  0  0
    9.9901   -8.1382   23.1595 C   0  0  0  0  0  0  0  0  0  0  0  0
   11.0886   -7.9486   22.3031 C   0  0  0  0  0  0  0  0  0  0  0  0
   11.4091   -6.6476   21.8814 C   0  0  0  0  0  0  0  0  0  0  0  0
   10.6107   -5.5620   22.2352 C   0  0  0  0  0  0  0  0  0  0  0  0
    9.4956   -5.7318   23.0605 C   0  0  0  0  0  0  0  0  0  0  0  0
    9.2452   -7.0287   23.5287 C   0  0  0  0  0  0  0  0  0  0  0  0
    8.3272   -7.5350   24.4197 N   0  0  0  0  0  0  0  0  0  0  0  0
    6.8562   -7.7360   28.2559 H   0  0  0  0  0  0  0  0  0  0  0  0
    5.8514  -11.9829   29.1427 H   0  0  0  0  0  0  0  0  0  0  0  0
    4.4734  -13.9401   29.8081 H   0  0  0  0  0  0  0  0  0  0  0  0
    4.1897  -15.8417   28.1875 H   0  0  0  0  0  0  0  0  0  0  0  0
    5.3765  -15.6572   25.9904 H   0  0  0  0  0  0  0  0  0  0  0  0
   11.7090   -8.7963   22.0334 H   0  0  0  0  0  0  0  0  0  0  0  0
   12.2971   -6.4772   21.2779 H   0  0  0  0  0  0  0  0  0  0  0  0
   10.8841   -4.5658   21.8923 H   0  0  0  0  0  0  0  0  0  0  0  0
    8.8942   -4.8853   23.3739 H   0  0  0  0  0  0  0  0  0  0  0  0
    7.5901   -6.9946   24.8519 H   0  0  0  0  0  0  0  0  0  0  0  0
  1  2  1  0
  2  3  1  0
  2  4  1  0
  4  5  2  0
  5  6  1  0
  6  7  1  0
  7  8  2  0
  8  9  1  0
  9 10  2  0
 10 11  1  0
 11 12  2  0
  6 13  2  0
 13 14  1  0
 14 15  1  0
 15 16  2  0
 16 17  1  0
 17 18  2  0
 18 19  1  0
 19 20  2  0
 20 21  1  0
 21 22  2  0
 22 23  1  0
 14  4  1  0
 23 15  1  0
 12  7  1  0
 22 17  1  0
  2 24  1  0
  8 25  1  0
  9 26  1  0
 10 27  1  0
 11 28  1  0
 18 29  1  0
 19 30  1  0
 20 31  1  0
 21 32  1  0
 23 33  1  0
M  END
>  <Energy>  (982) 
111.27630506478825

>  <compound_id>  (982) 
6190

>  <target_id>  (982) 
1

>  <reference_id>  (982) 
103

>  <inspiration_ids>  (982) 
[82, 103]

>  <energy_score>  (982) 
-21.58366764325126

>  <distance_score>  (982) 
16.062463778739016

>  <path>  (982) 
/opt/xchem-fragalysis-2/maxwin/BulkDock/SCRATCH/511018/C6190-P103/C6190-P103.minimised.mol

>  <scratch_subdir>  (982) 
/opt/xchem-fragalysis-2/maxwin/BulkDock/SCRATCH/511018/C6190-P103

>  <fragmenstein_runtime>  (982) 
24.335384607315063

>  <fragmenstein_outcome>  (982) 
too moved

>  <fragmenstein_mode>  (982) 
expansion

>  <fragmenstein_error>  (982) 


$$$$
C6191-P82
     RDKit          3D

 39 42  0  0  0  0  0  0  0  0999 V2000
    8.2751  -11.5654   25.1222 C   0  0  0  0  0  0  0  0  0  0  0  0
    7.3300  -10.4075   24.7838 C   0  0  0  0  0  0  0  0  0  0  0  0
    6.1832  -10.8847   23.7945 C   0  0  0  0  0  0  0  0  0  0  0  0
    4.5483   -9.9023   23.5283 C   0  0  0  0  0  0  0  0  0  0  0  0
    2.9185  -10.8811   23.7795 N   0  0  0  0  0  0  0  0  0  0  0  0
    2.2795  -10.8880   25.7573 C   0  0  0  0  0  0  0  0  0  0  0  0
    1.1220  -12.6369   25.9355 C   0  0  0  0  0  0  0  0  0  0  0  0
    0.7841  -13.8490   26.7578 C   0  0  0  0  0  0  0  0  0  0  0  0
   -0.7366  -14.7875   27.6406 C   0  0  0  0  0  0  0  0  0  0  0  0
   -2.2085  -14.9793   27.0248 C   0  0  0  0  0  0  0  0  0  0  0  0
   -2.1208  -14.2557   25.8289 C   0  0  0  0  0  0  0  0  0  0  0  0
   -0.6407  -13.2701   25.6382 N   0  0  0  0  0  0  0  0  0  0  0  0
    3.9769  -10.0993   26.5497 N   0  0  0  0  0  0  0  0  0  0  0  0
    4.9944   -8.9394   25.1467 N   0  0  0  0  0  0  0  0  0  0  0  0
    6.0500   -7.5172   24.5203 C   0  0  0  0  0  0  0  0  0  0  0  0
    5.5758   -6.1466   24.0745 N   0  0  0  0  0  0  0  0  0  0  0  0
    6.6035   -4.7448   23.7034 C   0  0  0  0  0  0  0  0  0  0  0  0
    6.7418   -3.2046   24.0017 C   0  0  0  0  0  0  0  0  0  0  0  0
    7.8914   -2.5247   23.7756 C   0  0  0  0  0  0  0  0  0  0  0  0
    8.6841   -3.2101   22.9576 C   0  0  0  0  0  0  0  0  0  0  0  0
    8.1108   -4.2918   22.2635 C   0  0  0  0  0  0  0  0  0  0  0  0
    7.5509   -5.3849   23.0547 C   0  0  0  0  0  0  0  0  0  0  0  0
    6.8932   -6.8814   23.1720 N   0  0  0  0  0  0  0  0  0  0  0  0
    7.7603  -12.3155   25.7317 H   0  0  0  0  0  0  0  0  0  0  0  0
    8.6569  -12.0630   24.2280 H   0  0  0  0  0  0  0  0  0  0  0  0
    9.1287  -11.1971   25.7001 H   0  0  0  0  0  0  0  0  0  0  0  0
    7.9131   -9.5831   24.3790 H   0  0  0  0  0  0  0  0  0  0  0  0
    6.9682  -10.0586   25.7542 H   0  0  0  0  0  0  0  0  0  0  0  0
    5.9172  -11.7713   24.3338 H   0  0  0  0  0  0  0  0  0  0  0  0
    6.5828  -11.1091   22.8285 H   0  0  0  0  0  0  0  0  0  0  0  0
    1.7861  -14.2609   26.8735 H   0  0  0  0  0  0  0  0  0  0  0  0
   -0.7719  -15.5625   28.4483 H   0  0  0  0  0  0  0  0  0  0  0  0
   -3.0165  -15.5148   27.4777 H   0  0  0  0  0  0  0  0  0  0  0  0
   -3.0079  -13.8879   25.3323 H   0  0  0  0  0  0  0  0  0  0  0  0
    5.9565   -2.6537   24.5294 H   0  0  0  0  0  0  0  0  0  0  0  0
    8.1178   -1.5613   24.2053 H   0  0  0  0  0  0  0  0  0  0  0  0
    9.6962   -2.8886   22.7887 H   0  0  0  0  0  0  0  0  0  0  0  0
    8.3608   -4.3678   21.1992 H   0  0  0  0  0  0  0  0  0  0  0  0
    6.3260   -7.0781   22.3919 H   0  0  0  0  0  0  0  0  0  0  0  0
  1  2  1  0
  2  3  1  0
  3  4  1  0
  4  5  2  0
  5  6  1  0
  6  7  1  0
  7  8  2  0
  8  9  1  0
  9 10  2  0
 10 11  1  0
 11 12  2  0
  6 13  2  0
 13 14  1  0
 14 15  1  0
 15 16  2  0
 16 17  1  0
 17 18  2  0
 18 19  1  0
 19 20  2  0
 20 21  1  0
 21 22  2  0
 22 23  1  0
 14  4  1  0
 23 15  1  0
 12  7  1  0
 22 17  1  0
  1 24  1  0
  1 25  1  0
  1 26  1  0
  2 27  1  0
  2 28  1  0
  3 29  1  0
  3 30  1  0
  8 31  1  0
  9 32  1  0
 10 33  1  0
 11 34  1  0
 18 35  1  0
 19 36  1  0
 20 37  1  0
 21 38  1  0
 23 39  1  0
M  END
>  <Energy>  (983) 
1946.6646663101101

>  <compound_id>  (983) 
6191

>  <target_id>  (983) 
1

>  <reference_id>  (983) 
82

>  <inspiration_ids>  (983) 
[82, 103]

>  <energy_score>  (983) 
1830.5753846283558

>  <distance_score>  (983) 
13.999875630179702

>  <path>  (983) 
/opt/xchem-fragalysis-2/maxwin/BulkDock/SCRATCH/511018/C6191-P82/C6191-P82.minimised.mol

>  <scratch_subdir>  (983) 
/opt/xchem-fragalysis-2/maxwin/BulkDock/SCRATCH/511018/C6191-P82

>  <fragmenstein_runtime>  (983) 
17.840348482131958

>  <fragmenstein_outcome>  (983) 
too moved

>  <fragmenstein_mode>  (983) 
expansion

>  <fragmenstein_error>  (983) 


$$$$
C6191-P103
     RDKit          3D

 39 42  0  0  0  0  0  0  0  0999 V2000
    6.4126  -16.7141   18.0033 C   0  0  0  0  0  0  0  0  0  0  0  0
    6.4402  -15.3860   17.2587 C   0  0  0  0  0  0  0  0  0  0  0  0
    5.3854  -15.3107   16.1549 C   0  0  0  0  0  0  0  0  0  0  0  0
    4.0178  -15.0229   16.6792 C   0  0  0  0  0  0  0  0  0  0  0  0
    3.1854  -15.9722   17.0629 N   0  0  0  0  0  0  0  0  0  0  0  0
    1.9792  -15.3438   17.3069 C   0  0  0  0  0  0  0  0  0  0  0  0
    0.8045  -16.2129   17.8892 C   0  0  0  0  0  0  0  0  0  0  0  0
    1.0880  -17.3297   18.7004 C   0  0  0  0  0  0  0  0  0  0  0  0
    0.0616  -18.0276   19.3770 C   0  0  0  0  0  0  0  0  0  0  0  0
   -1.2523  -17.6132   19.2448 C   0  0  0  0  0  0  0  0  0  0  0  0
   -1.4754  -16.5341   18.4073 C   0  0  0  0  0  0  0  0  0  0  0  0
   -0.5005  -15.8381   17.7308 N   0  0  0  0  0  0  0  0  0  0  0  0
    2.0527  -13.9929   17.0475 N   0  0  0  0  0  0  0  0  0  0  0  0
    3.3971  -13.7687   16.7254 N   0  0  0  0  0  0  0  0  0  0  0  0
    3.9251  -12.4615   16.4025 C   0  0  0  0  0  0  0  0  0  0  0  0
    3.2406  -11.3544   16.1298 N   0  0  0  0  0  0  0  0  0  0  0  0
    4.1629  -10.4392   15.6265 C   0  0  0  0  0  0  0  0  0  0  0  0
    3.9783   -9.1569   15.0780 C   0  0  0  0  0  0  0  0  0  0  0  0
    5.0641   -8.5160   14.4623 C   0  0  0  0  0  0  0  0  0  0  0  0
    6.3187   -9.1246   14.4216 C   0  0  0  0  0  0  0  0  0  0  0  0
    6.5496  -10.3528   15.0525 C   0  0  0  0  0  0  0  0  0  0  0  0
    5.4407  -10.9785   15.6312 C   0  0  0  0  0  0  0  0  0  0  0  0
    5.2788  -12.1830   16.2748 N   0  0  0  0  0  0  0  0  0  0  0  0
    6.5720  -17.5515   17.3164 H   0  0  0  0  0  0  0  0  0  0  0  0
    5.4593  -16.8694   18.5150 H   0  0  0  0  0  0  0  0  0  0  0  0
    7.2091  -16.7402   18.7525 H   0  0  0  0  0  0  0  0  0  0  0  0
    6.3228  -14.5648   17.9752 H   0  0  0  0  0  0  0  0  0  0  0  0
    7.4313  -15.2759   16.8024 H   0  0  0  0  0  0  0  0  0  0  0  0
    5.6757  -14.5741   15.4003 H   0  0  0  0  0  0  0  0  0  0  0  0
    5.3569  -16.2650   15.6125 H   0  0  0  0  0  0  0  0  0  0  0  0
    2.1226  -17.6316   18.8378 H   0  0  0  0  0  0  0  0  0  0  0  0
    0.3122  -18.8759   20.0063 H   0  0  0  0  0  0  0  0  0  0  0  0
   -2.0663  -18.1134   19.7529 H   0  0  0  0  0  0  0  0  0  0  0  0
   -2.4826  -16.1610   18.2385 H   0  0  0  0  0  0  0  0  0  0  0  0
    2.9879   -8.7148   15.0709 H   0  0  0  0  0  0  0  0  0  0  0  0
    4.9052   -7.5568   13.9792 H   0  0  0  0  0  0  0  0  0  0  0  0
    7.1441   -8.6334   13.9127 H   0  0  0  0  0  0  0  0  0  0  0  0
    7.5358  -10.8030   15.0574 H   0  0  0  0  0  0  0  0  0  0  0  0
    6.0359  -12.8003   16.5126 H   0  0  0  0  0  0  0  0  0  0  0  0
  1  2  1  0
  2  3  1  0
  3  4  1  0
  4  5  2  0
  5  6  1  0
  6  7  1  0
  7  8  2  0
  8  9  1  0
  9 10  2  0
 10 11  1  0
 11 12  2  0
  6 13  2  0
 13 14  1  0
 14 15  1  0
 15 16  2  0
 16 17  1  0
 17 18  2  0
 18 19  1  0
 19 20  2  0
 20 21  1  0
 21 22  2  0
 22 23  1  0
 14  4  1  0
 23 15  1  0
 12  7  1  0
 22 17  1  0
  1 24  1  0
  1 25  1  0
  1 26  1  0
  2 27  1  0
  2 28  1  0
  3 29  1  0
  3 30  1  0
  8 31  1  0
  9 32  1  0
 10 33  1  0
 11 34  1  0
 18 35  1  0
 19 36  1  0
 20 37  1  0
 21 38  1  0
 23 39  1  0
M  END
>  <Energy>  (984) 
118.78897005435883

>  <compound_id>  (984) 
6191

>  <target_id>  (984) 
1

>  <reference_id>  (984) 
103

>  <inspiration_ids>  (984) 
[82, 103]

>  <energy_score>  (984) 
2.6996883725815906

>  <distance_score>  (984) 
16.46506288467134

>  <path>  (984) 
/opt/xchem-fragalysis-2/maxwin/BulkDock/SCRATCH/511018/C6191-P103/C6191-P103.minimised.mol

>  <scratch_subdir>  (984) 
/opt/xchem-fragalysis-2/maxwin/BulkDock/SCRATCH/511018/C6191-P103

>  <fragmenstein_runtime>  (984) 
19.753235816955566

>  <fragmenstein_outcome>  (984) 
too moved

>  <fragmenstein_mode>  (984) 
expansion

>  <fragmenstein_error>  (984) 


$$$$
C6192-P82
     RDKit          3D

 58 60  0  0  0  0  0  0  0  0999 V2000
  -10.1438  -23.0189   27.9243 C   0  0  0  0  0  0  0  0  0  0  0  0
  -10.2263  -21.3405   27.8523 C   0  0  0  0  0  0  0  0  0  0  0  0
  -11.5703  -21.4393   27.0482 C   0  0  0  0  0  0  0  0  0  0  0  0
   -8.9066  -19.8578   27.2680 C   0  0  0  0  0  0  0  0  0  0  0  0
   -8.6638  -18.0108   26.5256 C   0  0  0  0  0  0  0  0  0  0  0  0
   -9.5024  -16.9230   27.2180 C   0  0  0  0  0  0  0  0  0  0  0  0
   -7.9140  -17.2435   25.0966 O   0  0  0  0  0  0  0  0  0  0  0  0
   -7.8809  -15.6854   24.7535 C   0  0  0  0  0  0  0  0  0  0  0  0
   -6.8168  -14.8005   23.8084 C   0  0  0  0  0  0  0  0  0  0  0  0
   -6.5751  -13.1174   23.7561 C   0  0  0  0  0  0  0  0  0  0  0  0
   -5.1490  -11.7932   24.0618 C   0  0  0  0  0  0  0  0  0  0  0  0
   -3.8409  -10.4612   23.2265 N   0  0  0  0  0  0  0  0  0  0  0  0
   -3.2565  -10.3205   21.5855 C   0  0  0  0  0  0  0  0  0  0  0  0
   -3.5963  -10.9483   20.6236 O   0  0  0  0  0  0  0  0  0  0  0  0
   -2.1119   -9.2542   21.7467 N   0  0  0  0  0  0  0  0  0  0  0  0
   -0.9531   -8.7492   20.6857 C   0  0  0  0  0  0  0  0  0  0  0  0
   -0.0622   -8.1960   19.1507 C   0  0  0  0  0  0  0  0  0  0  0  0
    0.7758   -6.9098   18.5432 C   0  0  0  0  0  0  0  0  0  0  0  0
    1.0732   -6.7698   17.2487 N   0  0  0  0  0  0  0  0  0  0  0  0
    1.8713   -5.6465   17.1159 C   0  0  0  0  0  0  0  0  0  0  0  0
    2.3943   -5.0252   15.9676 C   0  0  0  0  0  0  0  0  0  0  0  0
    3.0438   -3.7918   16.1042 C   0  0  0  0  0  0  0  0  0  0  0  0
    3.1899   -3.2071   17.3644 C   0  0  0  0  0  0  0  0  0  0  0  0
    2.7912   -3.8717   18.5309 C   0  0  0  0  0  0  0  0  0  0  0  0
    2.1162   -5.0822   18.3544 C   0  0  0  0  0  0  0  0  0  0  0  0
    1.5321   -5.9611   19.2371 N   0  0  0  0  0  0  0  0  0  0  0  0
   -7.7457  -12.6708   24.4330 C   0  0  0  0  0  0  0  0  0  0  0  0
   -8.7218  -13.5593   25.1150 C   0  0  0  0  0  0  0  0  0  0  0  0
   -8.8178  -14.9453   25.3241 N   0  0  0  0  0  0  0  0  0  0  0  0
  -10.6566  -23.5787   27.1305 H   0  0  0  0  0  0  0  0  0  0  0  0
  -10.6360  -23.3719   28.8406 H   0  0  0  0  0  0  0  0  0  0  0  0
   -9.1346  -23.3746   27.8006 H   0  0  0  0  0  0  0  0  0  0  0  0
  -10.4541  -21.1994   28.9294 H   0  0  0  0  0  0  0  0  0  0  0  0
  -11.7970  -22.3418   26.4694 H   0  0  0  0  0  0  0  0  0  0  0  0
  -11.6479  -20.6453   26.2991 H   0  0  0  0  0  0  0  0  0  0  0  0
  -12.3189  -21.4657   27.8406 H   0  0  0  0  0  0  0  0  0  0  0  0
   -8.6876  -19.3254   28.1702 H   0  0  0  0  0  0  0  0  0  0  0  0
   -7.9473  -20.3758   27.1787 H   0  0  0  0  0  0  0  0  0  0  0  0
   -7.7050  -17.8870   27.0437 H   0  0  0  0  0  0  0  0  0  0  0  0
   -8.9158  -16.0118   27.3566 H   0  0  0  0  0  0  0  0  0  0  0  0
  -10.3913  -16.6834   26.6277 H   0  0  0  0  0  0  0  0  0  0  0  0
   -9.7974  -17.1835   28.2338 H   0  0  0  0  0  0  0  0  0  0  0  0
   -6.0186  -15.4111   23.3691 H   0  0  0  0  0  0  0  0  0  0  0  0
   -5.8598  -11.4974   24.8414 H   0  0  0  0  0  0  0  0  0  0  0  0
   -4.1539  -12.0718   24.4855 H   0  0  0  0  0  0  0  0  0  0  0  0
   -3.4297   -9.7455   23.7941 H   0  0  0  0  0  0  0  0  0  0  0  0
   -2.1508   -8.8564   22.6741 H   0  0  0  0  0  0  0  0  0  0  0  0
   -1.8377   -8.4250   20.1467 H   0  0  0  0  0  0  0  0  0  0  0  0
   -0.3970   -8.1787   21.4246 H   0  0  0  0  0  0  0  0  0  0  0  0
    0.9075   -8.6483   19.3680 H   0  0  0  0  0  0  0  0  0  0  0  0
   -0.5835   -8.6415   18.2934 H   0  0  0  0  0  0  0  0  0  0  0  0
    2.2263   -5.4673   14.9920 H   0  0  0  0  0  0  0  0  0  0  0  0
    3.4006   -3.2715   15.2188 H   0  0  0  0  0  0  0  0  0  0  0  0
    3.6459   -2.2224   17.4464 H   0  0  0  0  0  0  0  0  0  0  0  0
    2.9379   -3.4375   19.5138 H   0  0  0  0  0  0  0  0  0  0  0  0
    1.5888   -5.8719   20.2397 H   0  0  0  0  0  0  0  0  0  0  0  0
   -7.9320  -11.6046   24.5609 H   0  0  0  0  0  0  0  0  0  0  0  0
   -9.5523  -13.0409   25.6080 H   0  0  0  0  0  0  0  0  0  0  0  0
  1  2  1  0
  2  3  1  0
  2  4  1  0
  4  5  1  0
  5  6  1  0
  5  7  1  0
  7  8  1  0
  8  9  2  0
  9 10  1  0
 10 11  1  0
 11 12  1  0
 12 13  1  0
 13 14  2  0
 13 15  1  0
 15 16  1  0
 16 17  1  0
 17 18  1  0
 18 19  2  0
 19 20  1  0
 20 21  2  0
 21 22  1  0
 22 23  2  0
 23 24  1  0
 24 25  2  0
 25 26  1  0
 10 27  2  0
 27 28  1  0
 28 29  2  0
 29  8  1  0
 26 18  1  0
 25 20  1  0
  1 30  1  0
  1 31  1  0
  1 32  1  0
  2 33  1  0
  3 34  1  0
  3 35  1  0
  3 36  1  0
  4 37  1  0
  4 38  1  0
  5 39  1  0
  6 40  1  0
  6 41  1  0
  6 42  1  0
  9 43  1  0
 11 44  1  0
 11 45  1  0
 12 46  1  0
 15 47  1  0
 16 48  1  0
 16 49  1  0
 17 50  1  0
 17 51  1  0
 21 52  1  0
 22 53  1  0
 23 54  1  0
 24 55  1  0
 26 56  1  0
 27 57  1  0
 28 58  1  0
M  END
>  <Energy>  (985) 
761.0573113412006

>  <compound_id>  (985) 
6192

>  <target_id>  (985) 
1

>  <reference_id>  (985) 
82

>  <inspiration_ids>  (985) 
[82, 103]

>  <energy_score>  (985) 
794.6601721725166

>  <distance_score>  (985) 
13.255269463664893

>  <path>  (985) 
/opt/xchem-fragalysis-2/maxwin/BulkDock/SCRATCH/511018/C6192-P82/C6192-P82.minimised.mol

>  <scratch_subdir>  (985) 
/opt/xchem-fragalysis-2/maxwin/BulkDock/SCRATCH/511018/C6192-P82

>  <fragmenstein_runtime>  (985) 
54.426310777664185

>  <fragmenstein_outcome>  (985) 
too moved

>  <fragmenstein_mode>  (985) 
expansion

>  <fragmenstein_error>  (985) 


$$$$
C6192-P103
     RDKit          3D

 58 60  0  0  0  0  0  0  0  0999 V2000
   -1.7405  -16.5256   17.5956 C   0  0  0  0  0  0  0  0  0  0  0  0
   -2.8230  -17.4562   17.0546 C   0  0  0  0  0  0  0  0  0  0  0  0
   -2.7723  -18.8121   17.7608 C   0  0  0  0  0  0  0  0  0  0  0  0
   -4.2415  -16.8401   17.0177 C   0  0  0  0  0  0  0  0  0  0  0  0
   -4.8123  -16.1053   18.2503 C   0  0  0  0  0  0  0  0  0  0  0  0
   -4.8517  -16.9672   19.5074 C   0  0  0  0  0  0  0  0  0  0  0  0
   -4.0160  -14.9364   18.4785 O   0  0  0  0  0  0  0  0  0  0  0  0
   -4.6932  -13.8345   18.9642 C   0  0  0  0  0  0  0  0  0  0  0  0
   -3.9637  -12.6321   18.9430 C   0  0  0  0  0  0  0  0  0  0  0  0
   -4.5317  -11.4770   19.4722 C   0  0  0  0  0  0  0  0  0  0  0  0
   -3.8419  -10.1110   19.6378 C   0  0  0  0  0  0  0  0  0  0  0  0
   -2.6144   -9.6224   18.9698 N   0  0  0  0  0  0  0  0  0  0  0  0
   -2.4295   -8.5846   17.8759 C   0  0  0  0  0  0  0  0  0  0  0  0
   -3.2332   -7.9940   17.2578 O   0  0  0  0  0  0  0  0  0  0  0  0
   -0.9082   -8.4470   17.8751 N   0  0  0  0  0  0  0  0  0  0  0  0
   -0.0185   -7.4705   17.1749 C   0  0  0  0  0  0  0  0  0  0  0  0
    1.3947   -7.1945   17.7906 C   0  0  0  0  0  0  0  0  0  0  0  0
    2.1474   -6.0042   17.2331 C   0  0  0  0  0  0  0  0  0  0  0  0
    2.7182   -5.8812   16.0473 N   0  0  0  0  0  0  0  0  0  0  0  0
    3.1262   -4.5672   15.9586 C   0  0  0  0  0  0  0  0  0  0  0  0
    3.6504   -3.8542   14.8702 C   0  0  0  0  0  0  0  0  0  0  0  0
    3.9006   -2.4868   15.0181 C   0  0  0  0  0  0  0  0  0  0  0  0
    3.6249   -1.8431   16.2293 C   0  0  0  0  0  0  0  0  0  0  0  0
    3.1328   -2.5407   17.3371 C   0  0  0  0  0  0  0  0  0  0  0  0
    2.8931   -3.9017   17.1544 C   0  0  0  0  0  0  0  0  0  0  0  0
    2.3672   -4.8633   17.9794 N   0  0  0  0  0  0  0  0  0  0  0  0
   -5.8441  -11.6244   20.0018 C   0  0  0  0  0  0  0  0  0  0  0  0
   -6.4938  -12.8600   19.9938 C   0  0  0  0  0  0  0  0  0  0  0  0
   -5.9238  -13.9884   19.5211 N   0  0  0  0  0  0  0  0  0  0  0  0
   -1.7613  -15.5592   17.0815 H   0  0  0  0  0  0  0  0  0  0  0  0
   -0.7477  -16.9610   17.4360 H   0  0  0  0  0  0  0  0  0  0  0  0
   -1.8498  -16.3532   18.6705 H   0  0  0  0  0  0  0  0  0  0  0  0
   -2.5651  -17.6590   16.0052 H   0  0  0  0  0  0  0  0  0  0  0  0
   -3.5671  -19.4735   17.4007 H   0  0  0  0  0  0  0  0  0  0  0  0
   -1.8159  -19.3077   17.5593 H   0  0  0  0  0  0  0  0  0  0  0  0
   -2.8640  -18.7227   18.8454 H   0  0  0  0  0  0  0  0  0  0  0  0
   -4.9517  -17.6236   16.7221 H   0  0  0  0  0  0  0  0  0  0  0  0
   -4.2387  -16.1115   16.1942 H   0  0  0  0  0  0  0  0  0  0  0  0
   -5.8386  -15.8285   17.9721 H   0  0  0  0  0  0  0  0  0  0  0  0
   -5.4685  -16.4961   20.2797 H   0  0  0  0  0  0  0  0  0  0  0  0
   -5.2773  -17.9541   19.3034 H   0  0  0  0  0  0  0  0  0  0  0  0
   -3.8574  -17.0781   19.9497 H   0  0  0  0  0  0  0  0  0  0  0  0
   -2.9643  -12.6130   18.5233 H   0  0  0  0  0  0  0  0  0  0  0  0
   -3.6199  -10.0065   20.7068 H   0  0  0  0  0  0  0  0  0  0  0  0
   -4.5980   -9.3543   19.3926 H   0  0  0  0  0  0  0  0  0  0  0  0
   -1.7125   -9.9934   19.2347 H   0  0  0  0  0  0  0  0  0  0  0  0
   -0.5062   -9.1665   18.4645 H   0  0  0  0  0  0  0  0  0  0  0  0
   -0.5869   -6.5356   17.1105 H   0  0  0  0  0  0  0  0  0  0  0  0
    0.0949   -7.8411   16.1500 H   0  0  0  0  0  0  0  0  0  0  0  0
    1.2659   -7.0558   18.8671 H   0  0  0  0  0  0  0  0  0  0  0  0
    2.0079   -8.0934   17.6586 H   0  0  0  0  0  0  0  0  0  0  0  0
    3.8007   -4.3487   13.9183 H   0  0  0  0  0  0  0  0  0  0  0  0
    4.2975   -1.9250   14.1758 H   0  0  0  0  0  0  0  0  0  0  0  0
    3.8124   -0.7794   16.3355 H   0  0  0  0  0  0  0  0  0  0  0  0
    2.9249   -2.0390   18.2753 H   0  0  0  0  0  0  0  0  0  0  0  0
    2.0575   -4.7188   18.9306 H   0  0  0  0  0  0  0  0  0  0  0  0
   -6.3424  -10.7700   20.4544 H   0  0  0  0  0  0  0  0  0  0  0  0
   -7.4917  -12.9694   20.4070 H   0  0  0  0  0  0  0  0  0  0  0  0
  1  2  1  0
  2  3  1  0
  2  4  1  0
  4  5  1  0
  5  6  1  0
  5  7  1  0
  7  8  1  0
  8  9  2  0
  9 10  1  0
 10 11  1  0
 11 12  1  0
 12 13  1  0
 13 14  2  0
 13 15  1  0
 15 16  1  0
 16 17  1  0
 17 18  1  0
 18 19  2  0
 19 20  1  0
 20 21  2  0
 21 22  1  0
 22 23  2  0
 23 24  1  0
 24 25  2  0
 25 26  1  0
 10 27  2  0
 27 28  1  0
 28 29  2  0
 29  8  1  0
 26 18  1  0
 25 20  1  0
  1 30  1  0
  1 31  1  0
  1 32  1  0
  2 33  1  0
  3 34  1  0
  3 35  1  0
  3 36  1  0
  4 37  1  0
  4 38  1  0
  5 39  1  0
  6 40  1  0
  6 41  1  0
  6 42  1  0
  9 43  1  0
 11 44  1  0
 11 45  1  0
 12 46  1  0
 15 47  1  0
 16 48  1  0
 16 49  1  0
 17 50  1  0
 17 51  1  0
 21 52  1  0
 22 53  1  0
 23 54  1  0
 24 55  1  0
 26 56  1  0
 27 57  1  0
 28 58  1  0
M  END
>  <Energy>  (986) 
-26.580127796052565

>  <compound_id>  (986) 
6192

>  <target_id>  (986) 
1

>  <reference_id>  (986) 
103

>  <inspiration_ids>  (986) 
[82, 103]

>  <energy_score>  (986) 
7.022733035262547

>  <distance_score>  (986) 
15.09019040482821

>  <path>  (986) 
/opt/xchem-fragalysis-2/maxwin/BulkDock/SCRATCH/511018/C6192-P103/C6192-P103.minimised.mol

>  <scratch_subdir>  (986) 
/opt/xchem-fragalysis-2/maxwin/BulkDock/SCRATCH/511018/C6192-P103

>  <fragmenstein_runtime>  (986) 
83.55184578895569

>  <fragmenstein_outcome>  (986) 
too moved

>  <fragmenstein_mode>  (986) 
expansion

>  <fragmenstein_error>  (986) 


$$$$
C6195-P82
     RDKit          3D

 40 42  0  0  0  0  0  0  0  0999 V2000
   -1.9213   -7.6249   32.3854 C   0  0  0  0  0  0  0  0  0  0  0  0
   -1.2727   -8.9221   31.9202 C   0  0  0  0  0  0  0  0  0  0  0  0
   -0.3976   -8.8074   30.6777 C   0  0  0  0  0  0  0  0  0  0  0  0
    0.2054   -9.9698   30.2330 C   0  0  0  0  0  0  0  0  0  0  0  0
    0.9567   -9.9311   29.0668 C   0  0  0  0  0  0  0  0  0  0  0  0
    1.2076   -8.8162   28.3230 N   0  0  0  0  0  0  0  0  0  0  0  0
    0.7187   -7.6362   28.7848 C   0  0  0  0  0  0  0  0  0  0  0  0
    1.1512   -6.2658   28.0731 C   0  0  0  0  0  0  0  0  0  0  0  0
    0.6716   -5.3005   28.6070 O   0  0  0  0  0  0  0  0  0  0  0  0
    2.0469   -6.3699   26.9134 N   0  0  0  0  0  0  0  0  0  0  0  0
    2.5740   -5.2999   25.9543 C   0  0  0  0  0  0  0  0  0  0  0  0
    4.0900   -5.3725   25.4717 C   0  0  0  0  0  0  0  0  0  0  0  0
    4.5905   -4.4085   24.3810 C   0  0  0  0  0  0  0  0  0  0  0  0
    4.0358   -4.1387   23.2110 N   0  0  0  0  0  0  0  0  0  0  0  0
    4.9036   -3.2987   22.5369 C   0  0  0  0  0  0  0  0  0  0  0  0
    4.7630   -2.6667   21.2899 C   0  0  0  0  0  0  0  0  0  0  0  0
    5.7555   -1.7763   20.8666 C   0  0  0  0  0  0  0  0  0  0  0  0
    6.8984   -1.5680   21.6395 C   0  0  0  0  0  0  0  0  0  0  0  0
    7.0904   -2.2371   22.8573 C   0  0  0  0  0  0  0  0  0  0  0  0
    6.0511   -3.0739   23.2844 C   0  0  0  0  0  0  0  0  0  0  0  0
    5.8422   -3.8039   24.4354 N   0  0  0  0  0  0  0  0  0  0  0  0
   -0.1249   -7.6280   29.9337 C   0  0  0  0  0  0  0  0  0  0  0  0
   -2.5270   -7.8082   33.2789 H   0  0  0  0  0  0  0  0  0  0  0  0
   -1.1670   -6.8733   32.6408 H   0  0  0  0  0  0  0  0  0  0  0  0
   -2.5769   -7.2046   31.6161 H   0  0  0  0  0  0  0  0  0  0  0  0
   -0.6477   -9.3008   32.7389 H   0  0  0  0  0  0  0  0  0  0  0  0
   -2.0588   -9.6610   31.7446 H   0  0  0  0  0  0  0  0  0  0  0  0
    0.1046  -10.8862   30.8016 H   0  0  0  0  0  0  0  0  0  0  0  0
    1.4353  -10.8311   28.6917 H   0  0  0  0  0  0  0  0  0  0  0  0
    2.1857   -7.3603   26.6854 H   0  0  0  0  0  0  0  0  0  0  0  0
    2.3899   -4.3314   26.4317 H   0  0  0  0  0  0  0  0  0  0  0  0
    1.9220   -5.3602   25.0757 H   0  0  0  0  0  0  0  0  0  0  0  0
    4.7246   -5.2661   26.3603 H   0  0  0  0  0  0  0  0  0  0  0  0
    4.2685   -6.3811   25.0831 H   0  0  0  0  0  0  0  0  0  0  0  0
    3.8670   -2.8327   20.7011 H   0  0  0  0  0  0  0  0  0  0  0  0
    5.6197   -1.2426   19.9292 H   0  0  0  0  0  0  0  0  0  0  0  0
    7.6357   -0.8484   21.3005 H   0  0  0  0  0  0  0  0  0  0  0  0
    7.9703   -2.0633   23.4679 H   0  0  0  0  0  0  0  0  0  0  0  0
    6.4857   -3.8707   25.2100 H   0  0  0  0  0  0  0  0  0  0  0  0
   -0.5196   -6.6679   30.2610 H   0  0  0  0  0  0  0  0  0  0  0  0
  1  2  1  0
  2  3  1  0
  3  4  2  0
  4  5  1  0
  5  6  2  0
  6  7  1  0
  7  8  1  0
  8  9  2  0
  8 10  1  0
 10 11  1  0
 11 12  1  0
 12 13  1  0
 13 14  2  0
 14 15  1  0
 15 16  2  0
 16 17  1  0
 17 18  2  0
 18 19  1  0
 19 20  2  0
 20 21  1  0
  7 22  2  0
 22  3  1  0
 21 13  1  0
 20 15  1  0
  1 23  1  0
  1 24  1  0
  1 25  1  0
  2 26  1  0
  2 27  1  0
  4 28  1  0
  5 29  1  0
 10 30  1  0
 11 31  1  0
 11 32  1  0
 12 33  1  0
 12 34  1  0
 16 35  1  0
 17 36  1  0
 18 37  1  0
 19 38  1  0
 21 39  1  0
 22 40  1  0
M  END
>  <Energy>  (987) 
78.916715307863996

>  <compound_id>  (987) 
6195

>  <target_id>  (987) 
1

>  <reference_id>  (987) 
82

>  <inspiration_ids>  (987) 
[82, 103]

>  <energy_score>  (987) 
10.170675700049742

>  <distance_score>  (987) 
15.503471505333867

>  <path>  (987) 
/opt/xchem-fragalysis-2/maxwin/BulkDock/SCRATCH/511018/C6195-P82/C6195-P82.minimised.mol

>  <scratch_subdir>  (987) 
/opt/xchem-fragalysis-2/maxwin/BulkDock/SCRATCH/511018/C6195-P82

>  <fragmenstein_runtime>  (987) 
33.655301570892334

>  <fragmenstein_outcome>  (987) 
too moved

>  <fragmenstein_mode>  (987) 
expansion

>  <fragmenstein_error>  (987) 


$$$$
C6195-P103
     RDKit          3D

 40 42  0  0  0  0  0  0  0  0999 V2000
   -2.9899  -17.8424   18.0664 C   0  0  0  0  0  0  0  0  0  0  0  0
   -2.4118  -17.5129   19.4347 C   0  0  0  0  0  0  0  0  0  0  0  0
   -0.9462  -17.9013   19.5204 C   0  0  0  0  0  0  0  0  0  0  0  0
   -0.6242  -19.1247   20.1018 C   0  0  0  0  0  0  0  0  0  0  0  0
    0.7116  -19.4493   20.1628 C   0  0  0  0  0  0  0  0  0  0  0  0
    1.7221  -18.6311   19.7457 N   0  0  0  0  0  0  0  0  0  0  0  0
    1.4626  -17.3916   19.1878 C   0  0  0  0  0  0  0  0  0  0  0  0
    2.8625  -16.4717   19.0817 C   0  0  0  0  0  0  0  0  0  0  0  0
    3.7750  -17.0517   19.6134 O   0  0  0  0  0  0  0  0  0  0  0  0
    2.8036  -15.1068   18.4866 N   0  0  0  0  0  0  0  0  0  0  0  0
    3.8474  -13.9788   18.4553 C   0  0  0  0  0  0  0  0  0  0  0  0
    3.5890  -12.5989   17.7216 C   0  0  0  0  0  0  0  0  0  0  0  0
    4.4425  -11.3337   17.9978 C   0  0  0  0  0  0  0  0  0  0  0  0
    4.2670  -10.1745   17.3678 N   0  0  0  0  0  0  0  0  0  0  0  0
    4.9753   -9.2215   18.0637 C   0  0  0  0  0  0  0  0  0  0  0  0
    5.0029   -7.8218   17.9154 C   0  0  0  0  0  0  0  0  0  0  0  0
    5.7362   -7.0609   18.8361 C   0  0  0  0  0  0  0  0  0  0  0  0
    6.4639   -7.6827   19.8540 C   0  0  0  0  0  0  0  0  0  0  0  0
    6.4967   -9.0803   19.9768 C   0  0  0  0  0  0  0  0  0  0  0  0
    5.7121   -9.8166   19.0784 C   0  0  0  0  0  0  0  0  0  0  0  0
    5.4030  -11.1643   18.9802 N   0  0  0  0  0  0  0  0  0  0  0  0
    0.1101  -17.0541   19.0169 C   0  0  0  0  0  0  0  0  0  0  0  0
   -2.9202  -18.9148   17.8547 H   0  0  0  0  0  0  0  0  0  0  0  0
   -4.0452  -17.5554   18.0214 H   0  0  0  0  0  0  0  0  0  0  0  0
   -2.4597  -17.3081   17.2709 H   0  0  0  0  0  0  0  0  0  0  0  0
   -2.9932  -18.0241   20.2067 H   0  0  0  0  0  0  0  0  0  0  0  0
   -2.5016  -16.4371   19.6202 H   0  0  0  0  0  0  0  0  0  0  0  0
   -1.3773  -19.8080   20.4736 H   0  0  0  0  0  0  0  0  0  0  0  0
    1.0436  -20.3950   20.5819 H   0  0  0  0  0  0  0  0  0  0  0  0
    1.9026  -14.9743   18.0523 H   0  0  0  0  0  0  0  0  0  0  0  0
    4.7628  -14.4326   18.0584 H   0  0  0  0  0  0  0  0  0  0  0  0
    4.0469  -13.7761   19.5143 H   0  0  0  0  0  0  0  0  0  0  0  0
    2.5507  -12.3126   17.9330 H   0  0  0  0  0  0  0  0  0  0  0  0
    3.6314  -12.7892   16.6416 H   0  0  0  0  0  0  0  0  0  0  0  0
    4.4180   -7.3517   17.1322 H   0  0  0  0  0  0  0  0  0  0  0  0
    5.7155   -5.9791   18.7647 H   0  0  0  0  0  0  0  0  0  0  0  0
    7.0117   -7.0766   20.5726 H   0  0  0  0  0  0  0  0  0  0  0  0
    7.0506   -9.5627   20.7752 H   0  0  0  0  0  0  0  0  0  0  0  0
    5.7119  -11.8788   19.6230 H   0  0  0  0  0  0  0  0  0  0  0  0
   -0.1675  -16.1317   18.5277 H   0  0  0  0  0  0  0  0  0  0  0  0
  1  2  1  0
  2  3  1  0
  3  4  2  0
  4  5  1  0
  5  6  2  0
  6  7  1  0
  7  8  1  0
  8  9  2  0
  8 10  1  0
 10 11  1  0
 11 12  1  0
 12 13  1  0
 13 14  2  0
 14 15  1  0
 15 16  2  0
 16 17  1  0
 17 18  2  0
 18 19  1  0
 19 20  2  0
 20 21  1  0
  7 22  2  0
 22  3  1  0
 21 13  1  0
 20 15  1  0
  1 23  1  0
  1 24  1  0
  1 25  1  0
  2 26  1  0
  2 27  1  0
  4 28  1  0
  5 29  1  0
 10 30  1  0
 11 31  1  0
 11 32  1  0
 12 33  1  0
 12 34  1  0
 16 35  1  0
 17 36  1  0
 18 37  1  0
 19 38  1  0
 21 39  1  0
 22 40  1  0
M  END
>  <Energy>  (988) 
112.90623329385902

>  <compound_id>  (988) 
6195

>  <target_id>  (988) 
1

>  <reference_id>  (988) 
103

>  <inspiration_ids>  (988) 
[82, 103]

>  <energy_score>  (988) 
44.16019368604668

>  <distance_score>  (988) 
15.547479231183685

>  <path>  (988) 
/opt/xchem-fragalysis-2/maxwin/BulkDock/SCRATCH/511018/C6195-P103/C6195-P103.minimised.mol

>  <scratch_subdir>  (988) 
/opt/xchem-fragalysis-2/maxwin/BulkDock/SCRATCH/511018/C6195-P103

>  <fragmenstein_runtime>  (988) 
40.627209186553955

>  <fragmenstein_outcome>  (988) 
too moved

>  <fragmenstein_mode>  (988) 
expansion

>  <fragmenstein_error>  (988) 


$$$$
C6196-P82
     RDKit          3D

 45 48  0  0  0  0  0  0  0  0999 V2000
    1.5873   -1.3191   17.0930 C   0  0  0  0  0  0  0  0  0  0  0  0
    2.7718   -1.8942   16.7231 C   0  0  0  0  0  0  0  0  0  0  0  0
    3.0908   -3.1218   17.2770 C   0  0  0  0  0  0  0  0  0  0  0  0
    2.1645   -3.9843   18.2230 C   0  0  0  0  0  0  0  0  0  0  0  0
    2.4873   -5.2237   19.5651 N   0  0  0  0  0  0  0  0  0  0  0  0
    1.4352   -5.7922   20.3095 C   0  0  0  0  0  0  0  0  0  0  0  0
    0.6551   -7.6561   20.0849 C   0  0  0  0  0  0  0  0  0  0  0  0
    0.4675   -8.2985   21.4531 C   0  0  0  0  0  0  0  0  0  0  0  0
   -0.8512   -8.8594   21.9117 C   0  0  0  0  0  0  0  0  0  0  0  0
   -1.6266   -9.8420   21.1159 C   0  0  0  0  0  0  0  0  0  0  0  0
   -1.8949   -9.5185   19.7661 N   0  0  0  0  0  0  0  0  0  0  0  0
   -2.5434  -10.7154   19.0137 C   0  0  0  0  0  0  0  0  0  0  0  0
   -3.6672  -11.5816   19.8942 C   0  0  0  0  0  0  0  0  0  0  0  0
   -4.3748  -12.9851   19.8648 C   0  0  0  0  0  0  0  0  0  0  0  0
   -3.6767  -14.1974   19.9753 C   0  0  0  0  0  0  0  0  0  0  0  0
   -4.3231  -15.3685   20.4213 C   0  0  0  0  0  0  0  0  0  0  0  0
   -5.6285  -15.4500   20.7514 N   0  0  0  0  0  0  0  0  0  0  0  0
   -6.3155  -14.2997   20.6084 C   0  0  0  0  0  0  0  0  0  0  0  0
   -5.7522  -13.0846   20.1761 C   0  0  0  0  0  0  0  0  0  0  0  0
   -0.7946   -8.5323   19.1815 C   0  0  0  0  0  0  0  0  0  0  0  0
    0.7269   -4.4078   20.2221 N   0  0  0  0  0  0  0  0  0  0  0  0
    0.8923   -3.4902   18.6529 C   0  0  0  0  0  0  0  0  0  0  0  0
    0.7244   -1.9879   17.9990 C   0  0  0  0  0  0  0  0  0  0  0  0
    1.3001   -0.3489   16.6997 H   0  0  0  0  0  0  0  0  0  0  0  0
    3.4568   -1.3974   16.0452 H   0  0  0  0  0  0  0  0  0  0  0  0
    4.0176   -3.5806   16.9849 H   0  0  0  0  0  0  0  0  0  0  0  0
    3.4623   -5.3077   19.8031 H   0  0  0  0  0  0  0  0  0  0  0  0
    1.3870   -8.1719   19.4394 H   0  0  0  0  0  0  0  0  0  0  0  0
    1.1000   -9.1761   21.4083 H   0  0  0  0  0  0  0  0  0  0  0  0
    0.7710   -7.6473   22.2560 H   0  0  0  0  0  0  0  0  0  0  0  0
   -1.5355   -8.1442   22.3459 H   0  0  0  0  0  0  0  0  0  0  0  0
   -0.5290   -9.4627   22.7286 H   0  0  0  0  0  0  0  0  0  0  0  0
   -1.1380  -10.8087   21.1790 H   0  0  0  0  0  0  0  0  0  0  0  0
   -2.5959   -9.9072   21.6151 H   0  0  0  0  0  0  0  0  0  0  0  0
   -1.7780  -11.4270   18.6990 H   0  0  0  0  0  0  0  0  0  0  0  0
   -3.0416  -10.3276   18.1195 H   0  0  0  0  0  0  0  0  0  0  0  0
   -4.4491  -10.8419   20.1123 H   0  0  0  0  0  0  0  0  0  0  0  0
   -3.0782  -11.7271   20.7880 H   0  0  0  0  0  0  0  0  0  0  0  0
   -2.6109  -14.2319   19.8042 H   0  0  0  0  0  0  0  0  0  0  0  0
   -3.7609  -16.2917   20.5359 H   0  0  0  0  0  0  0  0  0  0  0  0
   -7.3667  -14.3519   20.8762 H   0  0  0  0  0  0  0  0  0  0  0  0
   -6.3761  -12.1952   20.1774 H   0  0  0  0  0  0  0  0  0  0  0  0
   -1.6551   -8.0202   18.8358 H   0  0  0  0  0  0  0  0  0  0  0  0
   -0.3882   -8.7872   18.2005 H   0  0  0  0  0  0  0  0  0  0  0  0
   -0.2107   -1.4528   18.1698 H   0  0  0  0  0  0  0  0  0  0  0  0
  1  2  2  0
  2  3  1  0
  3  4  2  0
  4  5  1  0
  5  6  1  0
  6  7  1  0
  7  8  1  0
  8  9  1  0
  9 10  1  0
 10 11  1  0
 11 12  1  0
 12 13  1  0
 13 14  1  0
 14 15  2  0
 15 16  1  0
 16 17  2  0
 17 18  1  0
 18 19  2  0
 11 20  1  0
  6 21  2  0
 21 22  1  0
 22 23  2  0
 23  1  1  0
 22  4  1  0
 20  7  1  0
 19 14  1  0
  1 24  1  0
  2 25  1  0
  3 26  1  0
  5 27  1  0
  7 28  1  0
  8 29  1  0
  8 30  1  0
  9 31  1  0
  9 32  1  0
 10 33  1  0
 10 34  1  0
 12 35  1  0
 12 36  1  0
 13 37  1  0
 13 38  1  0
 15 39  1  0
 16 40  1  0
 18 41  1  0
 19 42  1  0
 20 43  1  0
 20 44  1  0
 23 45  1  0
M  END
>  <Energy>  (989) 
506.67536007237783

>  <compound_id>  (989) 
6196

>  <target_id>  (989) 
1

>  <reference_id>  (989) 
82

>  <inspiration_ids>  (989) 
[82, 103]

>  <energy_score>  (989) 
415.62697539586566

>  <distance_score>  (989) 
14.995583255852326

>  <path>  (989) 
/opt/xchem-fragalysis-2/maxwin/BulkDock/SCRATCH/511018/C6196-P82/C6196-P82.minimised.mol

>  <scratch_subdir>  (989) 
/opt/xchem-fragalysis-2/maxwin/BulkDock/SCRATCH/511018/C6196-P82

>  <fragmenstein_runtime>  (989) 
23.65362858772278

>  <fragmenstein_outcome>  (989) 
too moved

>  <fragmenstein_mode>  (989) 
expansion

>  <fragmenstein_error>  (989) 


$$$$
C6196-P103
     RDKit          3D

 45 48  0  0  0  0  0  0  0  0999 V2000
    8.1217    0.4327   26.9611 C   0  0  0  0  0  0  0  0  0  0  0  0
    7.7712    1.7177   26.5299 C   0  0  0  0  0  0  0  0  0  0  0  0
    6.6232    1.9534   25.7617 C   0  0  0  0  0  0  0  0  0  0  0  0
    5.8931    0.8246   25.3914 C   0  0  0  0  0  0  0  0  0  0  0  0
    4.9305    0.6264   24.4308 N   0  0  0  0  0  0  0  0  0  0  0  0
    4.9470   -0.7203   24.1006 C   0  0  0  0  0  0  0  0  0  0  0  0
    4.4217   -1.3185   22.6510 C   0  0  0  0  0  0  0  0  0  0  0  0
    3.3180   -0.0546   21.3479 C   0  0  0  0  0  0  0  0  0  0  0  0
    1.9835   -1.1653   19.8280 C   0  0  0  0  0  0  0  0  0  0  0  0
    1.2411   -3.0455   20.8256 C   0  0  0  0  0  0  0  0  0  0  0  0
    1.8258   -3.6405   22.4390 N   0  0  0  0  0  0  0  0  0  0  0  0
    0.8766   -5.0741   23.0760 C   0  0  0  0  0  0  0  0  0  0  0  0
   -0.3097   -5.9955   24.3727 C   0  0  0  0  0  0  0  0  0  0  0  0
   -0.4710   -6.3204   26.0909 C   0  0  0  0  0  0  0  0  0  0  0  0
   -0.4232   -7.6437   26.4519 C   0  0  0  0  0  0  0  0  0  0  0  0
   -0.3505   -8.1467   27.7668 C   0  0  0  0  0  0  0  0  0  0  0  0
   -0.7082   -7.4245   28.8249 N   0  0  0  0  0  0  0  0  0  0  0  0
   -0.7908   -6.1233   28.5482 C   0  0  0  0  0  0  0  0  0  0  0  0
   -0.6010   -5.5542   27.2612 C   0  0  0  0  0  0  0  0  0  0  0  0
    3.1163   -2.6616   23.2910 C   0  0  0  0  0  0  0  0  0  0  0  0
    5.5503   -1.4044   25.0481 N   0  0  0  0  0  0  0  0  0  0  0  0
    6.2314   -0.4714   25.7905 C   0  0  0  0  0  0  0  0  0  0  0  0
    7.3361   -0.6751   26.6298 C   0  0  0  0  0  0  0  0  0  0  0  0
    9.0179    0.2895   27.5593 H   0  0  0  0  0  0  0  0  0  0  0  0
    8.4057    2.5581   26.8049 H   0  0  0  0  0  0  0  0  0  0  0  0
    6.3796    2.9438   25.3969 H   0  0  0  0  0  0  0  0  0  0  0  0
    4.5090    1.3204   23.8365 H   0  0  0  0  0  0  0  0  0  0  0  0
    5.2841   -1.7323   22.1390 H   0  0  0  0  0  0  0  0  0  0  0  0
    2.7930    1.0060   21.5853 H   0  0  0  0  0  0  0  0  0  0  0  0
    4.3234    0.6294   21.3056 H   0  0  0  0  0  0  0  0  0  0  0  0
    2.5492   -1.3583   18.8378 H   0  0  0  0  0  0  0  0  0  0  0  0
    1.2002   -0.7217   19.1833 H   0  0  0  0  0  0  0  0  0  0  0  0
    0.9238   -3.9311   20.2376 H   0  0  0  0  0  0  0  0  0  0  0  0
    0.3530   -2.8184   21.4748 H   0  0  0  0  0  0  0  0  0  0  0  0
    1.6665   -5.5640   23.5742 H   0  0  0  0  0  0  0  0  0  0  0  0
    0.7363   -5.6068   22.1399 H   0  0  0  0  0  0  0  0  0  0  0  0
   -1.3227   -5.6252   24.1907 H   0  0  0  0  0  0  0  0  0  0  0  0
   -0.2065   -7.0204   23.9861 H   0  0  0  0  0  0  0  0  0  0  0  0
   -0.2953   -8.2415   25.6021 H   0  0  0  0  0  0  0  0  0  0  0  0
   -0.1327   -9.1903   27.9734 H   0  0  0  0  0  0  0  0  0  0  0  0
   -0.9429   -5.4728   29.4067 H   0  0  0  0  0  0  0  0  0  0  0  0
   -0.5304   -4.4753   27.3245 H   0  0  0  0  0  0  0  0  0  0  0  0
    2.6344   -1.9970   23.9811 H   0  0  0  0  0  0  0  0  0  0  0  0
    3.6085   -3.2387   24.0697 H   0  0  0  0  0  0  0  0  0  0  0  0
    7.6216   -1.6842   26.9035 H   0  0  0  0  0  0  0  0  0  0  0  0
  1  2  2  0
  2  3  1  0
  3  4  2  0
  4  5  1  0
  5  6  1  0
  6  7  1  0
  7  8  1  0
  8  9  1  0
  9 10  1  0
 10 11  1  0
 11 12  1  0
 12 13  1  0
 13 14  1  0
 14 15  2  0
 15 16  1  0
 16 17  2  0
 17 18  1  0
 18 19  2  0
 11 20  1  0
  6 21  2  0
 21 22  1  0
 22 23  2  0
 23  1  1  0
 22  4  1  0
 20  7  1  0
 19 14  1  0
  1 24  1  0
  2 25  1  0
  3 26  1  0
  5 27  1  0
  7 28  1  0
  8 29  1  0
  8 30  1  0
  9 31  1  0
  9 32  1  0
 10 33  1  0
 10 34  1  0
 12 35  1  0
 12 36  1  0
 13 37  1  0
 13 38  1  0
 15 39  1  0
 16 40  1  0
 18 41  1  0
 19 42  1  0
 20 43  1  0
 20 44  1  0
 23 45  1  0
M  END
>  <Energy>  (990) 
865.21146781180221

>  <compound_id>  (990) 
6196

>  <target_id>  (990) 
1

>  <reference_id>  (990) 
103

>  <inspiration_ids>  (990) 
[82, 103]

>  <energy_score>  (990) 
774.1630831352845

>  <distance_score>  (990) 
16.75932903100454

>  <path>  (990) 
/opt/xchem-fragalysis-2/maxwin/BulkDock/SCRATCH/511018/C6196-P103/C6196-P103.minimised.mol

>  <scratch_subdir>  (990) 
/opt/xchem-fragalysis-2/maxwin/BulkDock/SCRATCH/511018/C6196-P103

>  <fragmenstein_runtime>  (990) 
32.288960218429565

>  <fragmenstein_outcome>  (990) 
too moved

>  <fragmenstein_mode>  (990) 
expansion

>  <fragmenstein_error>  (990) 


$$$$
C6197-P82
     RDKit          3D

 45 48  0  0  0  0  0  0  0  0999 V2000
    2.8966    1.7775   19.7596 C   0  0  0  0  0  0  0  0  0  0  0  0
    2.5331    1.1528   18.5659 C   0  0  0  0  0  0  0  0  0  0  0  0
    1.2222    0.6932   18.3695 C   0  0  0  0  0  0  0  0  0  0  0  0
    0.3081    0.8562   19.4274 C   0  0  0  0  0  0  0  0  0  0  0  0
   -1.0201    0.5030   19.5884 N   0  0  0  0  0  0  0  0  0  0  0  0
   -1.4120    0.6798   20.9185 C   0  0  0  0  0  0  0  0  0  0  0  0
   -2.8160    0.1793   21.5917 C   0  0  0  0  0  0  0  0  0  0  0  0
   -3.9677   -0.3604   20.6770 C   0  0  0  0  0  0  0  0  0  0  0  0
   -5.0355   -1.4018   21.3084 C   0  0  0  0  0  0  0  0  0  0  0  0
   -4.5284   -2.4464   22.2551 N   0  0  0  0  0  0  0  0  0  0  0  0
   -5.6360   -3.4338   22.8249 C   0  0  0  0  0  0  0  0  0  0  0  0
   -5.2269   -4.8984   23.5501 C   0  0  0  0  0  0  0  0  0  0  0  0
   -6.1369   -6.0878   24.0588 C   0  0  0  0  0  0  0  0  0  0  0  0
   -6.3521   -7.2474   23.2810 C   0  0  0  0  0  0  0  0  0  0  0  0
   -6.9202   -8.4088   23.8470 C   0  0  0  0  0  0  0  0  0  0  0  0
   -7.3114   -8.5183   25.1344 N   0  0  0  0  0  0  0  0  0  0  0  0
   -7.1283   -7.4063   25.8772 C   0  0  0  0  0  0  0  0  0  0  0  0
   -6.5603   -6.2045   25.3985 C   0  0  0  0  0  0  0  0  0  0  0  0
   -3.8434   -1.6515   23.2903 C   0  0  0  0  0  0  0  0  0  0  0  0
   -2.6095   -0.8153   22.7638 C   0  0  0  0  0  0  0  0  0  0  0  0
   -0.4214    1.3274   21.5389 N   0  0  0  0  0  0  0  0  0  0  0  0
    0.6450    1.4324   20.6405 C   0  0  0  0  0  0  0  0  0  0  0  0
    1.9586    1.9347   20.8002 C   0  0  0  0  0  0  0  0  0  0  0  0
    3.9131    2.1310   19.9023 H   0  0  0  0  0  0  0  0  0  0  0  0
    3.2687    1.0100   17.7781 H   0  0  0  0  0  0  0  0  0  0  0  0
    0.9374    0.1919   17.4504 H   0  0  0  0  0  0  0  0  0  0  0  0
   -1.5604    0.0422   18.8745 H   0  0  0  0  0  0  0  0  0  0  0  0
   -3.2103    1.1029   22.0431 H   0  0  0  0  0  0  0  0  0  0  0  0
   -4.5510    0.5122   20.3485 H   0  0  0  0  0  0  0  0  0  0  0  0
   -3.6147   -0.7813   19.7328 H   0  0  0  0  0  0  0  0  0  0  0  0
   -5.8143   -0.8102   21.8085 H   0  0  0  0  0  0  0  0  0  0  0  0
   -5.5217   -1.9064   20.4648 H   0  0  0  0  0  0  0  0  0  0  0  0
   -6.2579   -3.7127   21.9656 H   0  0  0  0  0  0  0  0  0  0  0  0
   -6.2682   -2.8743   23.5240 H   0  0  0  0  0  0  0  0  0  0  0  0
   -4.5891   -4.6255   24.4022 H   0  0  0  0  0  0  0  0  0  0  0  0
   -4.5470   -5.3579   22.8231 H   0  0  0  0  0  0  0  0  0  0  0  0
   -6.0191   -7.2824   22.2465 H   0  0  0  0  0  0  0  0  0  0  0  0
   -7.0547   -9.3026   23.2437 H   0  0  0  0  0  0  0  0  0  0  0  0
   -7.4430   -7.4889   26.9144 H   0  0  0  0  0  0  0  0  0  0  0  0
   -6.4136   -5.3823   26.0935 H   0  0  0  0  0  0  0  0  0  0  0  0
   -4.5455   -0.9675   23.7856 H   0  0  0  0  0  0  0  0  0  0  0  0
   -3.5114   -2.3538   24.0545 H   0  0  0  0  0  0  0  0  0  0  0  0
   -2.2297   -0.2201   23.6027 H   0  0  0  0  0  0  0  0  0  0  0  0
   -1.8123   -1.5135   22.5027 H   0  0  0  0  0  0  0  0  0  0  0  0
    2.2437    2.3837   21.7454 H   0  0  0  0  0  0  0  0  0  0  0  0
  1  2  2  0
  2  3  1  0
  3  4  2  0
  4  5  1  0
  5  6  1  0
  6  7  1  0
  7  8  1  0
  8  9  1  0
  9 10  1  0
 10 11  1  0
 11 12  1  0
 12 13  1  0
 13 14  2  0
 14 15  1  0
 15 16  2  0
 16 17  1  0
 17 18  2  0
 10 19  1  0
 19 20  1  0
  6 21  2  0
 21 22  1  0
 22 23  2  0
 23  1  1  0
 22  4  1  0
 20  7  1  0
 18 13  1  0
  1 24  1  0
  2 25  1  0
  3 26  1  0
  5 27  1  0
  7 28  1  0
  8 29  1  0
  8 30  1  0
  9 31  1  0
  9 32  1  0
 11 33  1  0
 11 34  1  0
 12 35  1  0
 12 36  1  0
 14 37  1  0
 15 38  1  0
 17 39  1  0
 18 40  1  0
 19 41  1  0
 19 42  1  0
 20 43  1  0
 20 44  1  0
 23 45  1  0
M  END
>  <Energy>  (991) 
90.693072761816822

>  <compound_id>  (991) 
6197

>  <target_id>  (991) 
1

>  <reference_id>  (991) 
82

>  <inspiration_ids>  (991) 
[82, 103]

>  <energy_score>  (991) 
26.00316757914493

>  <distance_score>  (991) 
16.685683948776887

>  <path>  (991) 
/opt/xchem-fragalysis-2/maxwin/BulkDock/SCRATCH/511018/C6197-P82/C6197-P82.minimised.mol

>  <scratch_subdir>  (991) 
/opt/xchem-fragalysis-2/maxwin/BulkDock/SCRATCH/511018/C6197-P82

>  <fragmenstein_runtime>  (991) 
22.557405948638916

>  <fragmenstein_outcome>  (991) 
too moved

>  <fragmenstein_mode>  (991) 
expansion

>  <fragmenstein_error>  (991) 


$$$$
C6197-P103
     RDKit          3D

 45 48  0  0  0  0  0  0  0  0999 V2000
    6.6693   -0.7183   25.7177 C   0  0  0  0  0  0  0  0  0  0  0  0
    5.7984   -0.8176   24.6319 C   0  0  0  0  0  0  0  0  0  0  0  0
    4.4838   -1.2649   24.8179 C   0  0  0  0  0  0  0  0  0  0  0  0
    4.0959   -1.6285   26.1222 C   0  0  0  0  0  0  0  0  0  0  0  0
    2.9396   -2.1826   26.6310 N   0  0  0  0  0  0  0  0  0  0  0  0
    3.0926   -2.5280   27.9774 C   0  0  0  0  0  0  0  0  0  0  0  0
    2.1437   -3.5744   28.7284 C   0  0  0  0  0  0  0  0  0  0  0  0
    0.8687   -3.9546   27.9607 C   0  0  0  0  0  0  0  0  0  0  0  0
   -0.2458   -4.8121   28.6857 C   0  0  0  0  0  0  0  0  0  0  0  0
    0.2783   -5.7148   29.7163 N   0  0  0  0  0  0  0  0  0  0  0  0
   -0.7732   -6.6893   30.3614 C   0  0  0  0  0  0  0  0  0  0  0  0
   -1.4862   -7.9284   29.5070 C   0  0  0  0  0  0  0  0  0  0  0  0
   -2.2218   -9.1837   30.0906 C   0  0  0  0  0  0  0  0  0  0  0  0
   -2.3362  -10.3547   29.2965 C   0  0  0  0  0  0  0  0  0  0  0  0
   -3.0389  -11.4818   29.7520 C   0  0  0  0  0  0  0  0  0  0  0  0
   -3.6597  -11.5407   30.9441 N   0  0  0  0  0  0  0  0  0  0  0  0
   -3.5618  -10.4226   31.6994 C   0  0  0  0  0  0  0  0  0  0  0  0
   -2.8763   -9.2473   31.3242 C   0  0  0  0  0  0  0  0  0  0  0  0
    0.9828   -4.8195   30.7140 C   0  0  0  0  0  0  0  0  0  0  0  0
    1.6873   -3.4535   30.1860 C   0  0  0  0  0  0  0  0  0  0  0  0
    4.2886   -2.0772   28.3624 N   0  0  0  0  0  0  0  0  0  0  0  0
    4.9332   -1.5612   27.2216 C   0  0  0  0  0  0  0  0  0  0  0  0
    6.2455   -1.0740   27.0174 C   0  0  0  0  0  0  0  0  0  0  0  0
    7.6901   -0.3794   25.5676 H   0  0  0  0  0  0  0  0  0  0  0  0
    6.1400   -0.5601   23.6339 H   0  0  0  0  0  0  0  0  0  0  0  0
    3.8033   -1.3796   23.9835 H   0  0  0  0  0  0  0  0  0  0  0  0
    2.1638   -2.4412   26.0411 H   0  0  0  0  0  0  0  0  0  0  0  0
    2.7801   -4.4484   28.7969 H   0  0  0  0  0  0  0  0  0  0  0  0
    1.1932   -4.5346   27.1052 H   0  0  0  0  0  0  0  0  0  0  0  0
    0.3844   -3.0330   27.6244 H   0  0  0  0  0  0  0  0  0  0  0  0
   -0.7726   -5.3914   27.9184 H   0  0  0  0  0  0  0  0  0  0  0  0
   -0.9854   -4.1299   29.1253 H   0  0  0  0  0  0  0  0  0  0  0  0
   -1.5788   -6.0820   30.7920 H   0  0  0  0  0  0  0  0  0  0  0  0
   -0.2555   -7.1744   31.1978 H   0  0  0  0  0  0  0  0  0  0  0  0
   -0.6865   -8.3230   28.8680 H   0  0  0  0  0  0  0  0  0  0  0  0
   -2.2039   -7.4440   28.8316 H   0  0  0  0  0  0  0  0  0  0  0  0
   -1.8692  -10.3967   28.3162 H   0  0  0  0  0  0  0  0  0  0  0  0
   -3.1114  -12.3775   29.1416 H   0  0  0  0  0  0  0  0  0  0  0  0
   -4.0687  -10.4757   32.6601 H   0  0  0  0  0  0  0  0  0  0  0  0
   -2.8722   -8.3998   32.0023 H   0  0  0  0  0  0  0  0  0  0  0  0
    1.7623   -5.4275   31.1879 H   0  0  0  0  0  0  0  0  0  0  0  0
    0.2785   -4.5245   31.5020 H   0  0  0  0  0  0  0  0  0  0  0  0
    2.5338   -3.2208   30.8421 H   0  0  0  0  0  0  0  0  0  0  0  0
    0.9695   -2.6290   30.2813 H   0  0  0  0  0  0  0  0  0  0  0  0
    6.9295   -1.0305   27.8567 H   0  0  0  0  0  0  0  0  0  0  0  0
  1  2  2  0
  2  3  1  0
  3  4  2  0
  4  5  1  0
  5  6  1  0
  6  7  1  0
  7  8  1  0
  8  9  1  0
  9 10  1  0
 10 11  1  0
 11 12  1  0
 12 13  1  0
 13 14  2  0
 14 15  1  0
 15 16  2  0
 16 17  1  0
 17 18  2  0
 10 19  1  0
 19 20  1  0
  6 21  2  0
 21 22  1  0
 22 23  2  0
 23  1  1  0
 22  4  1  0
 20  7  1  0
 18 13  1  0
  1 24  1  0
  2 25  1  0
  3 26  1  0
  5 27  1  0
  7 28  1  0
  8 29  1  0
  8 30  1  0
  9 31  1  0
  9 32  1  0
 11 33  1  0
 11 34  1  0
 12 35  1  0
 12 36  1  0
 14 37  1  0
 15 38  1  0
 17 39  1  0
 18 40  1  0
 19 41  1  0
 19 42  1  0
 20 43  1  0
 20 44  1  0
 23 45  1  0
M  END
>  <Energy>  (992) 
87.052239037679854

>  <compound_id>  (992) 
6197

>  <target_id>  (992) 
1

>  <reference_id>  (992) 
103

>  <inspiration_ids>  (992) 
[82, 103]

>  <energy_score>  (992) 
22.362333855011002

>  <distance_score>  (992) 
15.555019601742922

>  <path>  (992) 
/opt/xchem-fragalysis-2/maxwin/BulkDock/SCRATCH/511018/C6197-P103/C6197-P103.minimised.mol

>  <scratch_subdir>  (992) 
/opt/xchem-fragalysis-2/maxwin/BulkDock/SCRATCH/511018/C6197-P103

>  <fragmenstein_runtime>  (992) 
22.7788724899292

>  <fragmenstein_outcome>  (992) 
too moved

>  <fragmenstein_mode>  (992) 
expansion

>  <fragmenstein_error>  (992) 


$$$$
C6198-P82
     RDKit          3D

 39 42  0  0  0  0  0  0  0  0999 V2000
    6.5003   -6.2037   16.9986 C   0  0  0  0  0  0  0  0  0  0  0  0
    5.6711   -6.0748   15.9932 C   0  0  0  0  0  0  0  0  0  0  0  0
    4.4814   -6.0231   16.4445 C   0  0  0  0  0  0  0  0  0  0  0  0
    4.2527   -7.0448   17.5982 C   0  0  0  0  0  0  0  0  0  0  0  0
    2.9392   -8.2663   17.7480 N   0  0  0  0  0  0  0  0  0  0  0  0
    3.6276   -9.4940   17.7894 C   0  0  0  0  0  0  0  0  0  0  0  0
    3.4149  -11.4574   17.3074 C   0  0  0  0  0  0  0  0  0  0  0  0
    4.3542  -12.7542   18.1465 C   0  0  0  0  0  0  0  0  0  0  0  0
    3.1676  -13.6200   17.6464 N   0  0  0  0  0  0  0  0  0  0  0  0
    3.2211  -15.1104   17.8747 C   0  0  0  0  0  0  0  0  0  0  0  0
    2.8957  -15.7891   19.4315 C   0  0  0  0  0  0  0  0  0  0  0  0
    1.7177  -16.6682   20.0063 C   0  0  0  0  0  0  0  0  0  0  0  0
    0.7934  -17.4099   19.2671 C   0  0  0  0  0  0  0  0  0  0  0  0
   -0.2046  -18.1571   19.9330 C   0  0  0  0  0  0  0  0  0  0  0  0
   -0.3623  -18.2360   21.2761 N   0  0  0  0  0  0  0  0  0  0  0  0
    0.5351  -17.5343   21.9936 C   0  0  0  0  0  0  0  0  0  0  0  0
    1.5632  -16.7702   21.4177 C   0  0  0  0  0  0  0  0  0  0  0  0
    3.4890  -12.8888   16.3363 C   0  0  0  0  0  0  0  0  0  0  0  0
    4.8102   -8.9934   18.4358 N   0  0  0  0  0  0  0  0  0  0  0  0
    5.1961   -7.5102   18.3315 C   0  0  0  0  0  0  0  0  0  0  0  0
    6.2784   -6.6428   18.2880 C   0  0  0  0  0  0  0  0  0  0  0  0
    7.3728   -5.9884   16.4722 H   0  0  0  0  0  0  0  0  0  0  0  0
    5.9727   -6.5418   15.1007 H   0  0  0  0  0  0  0  0  0  0  0  0
    4.4096   -4.9640   16.7715 H   0  0  0  0  0  0  0  0  0  0  0  0
    2.0987   -8.1692   17.2034 H   0  0  0  0  0  0  0  0  0  0  0  0
    3.3657  -11.0892   16.2833 H   0  0  0  0  0  0  0  0  0  0  0  0
    5.3386  -13.0327   17.7422 H   0  0  0  0  0  0  0  0  0  0  0  0
    4.4633  -12.8091   19.2341 H   0  0  0  0  0  0  0  0  0  0  0  0
    2.4998  -15.5777   17.1958 H   0  0  0  0  0  0  0  0  0  0  0  0
    4.2210  -15.4617   17.5932 H   0  0  0  0  0  0  0  0  0  0  0  0
    3.7723  -16.4377   19.5828 H   0  0  0  0  0  0  0  0  0  0  0  0
    3.0464  -14.9573   20.1298 H   0  0  0  0  0  0  0  0  0  0  0  0
    0.8283  -17.4171   18.1827 H   0  0  0  0  0  0  0  0  0  0  0  0
   -0.9259  -18.7314   19.3565 H   0  0  0  0  0  0  0  0  0  0  0  0
    0.4224  -17.5861   23.0724 H   0  0  0  0  0  0  0  0  0  0  0  0
    2.2379  -16.2239   22.0747 H   0  0  0  0  0  0  0  0  0  0  0  0
    2.7027  -13.0230   15.5838 H   0  0  0  0  0  0  0  0  0  0  0  0
    4.4394  -13.1496   15.8481 H   0  0  0  0  0  0  0  0  0  0  0  0
    7.0677   -6.7926   18.9865 H   0  0  0  0  0  0  0  0  0  0  0  0
  1  2  2  0
  2  3  1  0
  3  4  2  0
  4  5  1  0
  5  6  1  0
  6  7  1  0
  7  8  1  0
  8  9  1  0
  9 10  1  0
 10 11  1  0
 11 12  1  0
 12 13  2  0
 13 14  1  0
 14 15  2  0
 15 16  1  0
 16 17  2  0
  9 18  1  0
  6 19  2  0
 19 20  1  0
 20 21  2  0
 21  1  1  0
 20  4  1  0
 18  7  1  0
 17 12  1  0
  1 22  1  0
  2 23  1  0
  3 24  1  0
  5 25  1  0
  7 26  1  0
  8 27  1  0
  8 28  1  0
 10 29  1  0
 10 30  1  0
 11 31  1  0
 11 32  1  0
 13 33  1  0
 14 34  1  0
 16 35  1  0
 17 36  1  0
 18 37  1  0
 18 38  1  0
 21 39  1  0
M  END
>  <Energy>  (993) 
470.40373747875725

>  <compound_id>  (993) 
6198

>  <target_id>  (993) 
1

>  <reference_id>  (993) 
82

>  <inspiration_ids>  (993) 
[82, 103]

>  <energy_score>  (993) 
384.53468376299395

>  <distance_score>  (993) 
15.263750811827693

>  <path>  (993) 
/opt/xchem-fragalysis-2/maxwin/BulkDock/SCRATCH/511018/C6198-P82/C6198-P82.minimised.mol

>  <scratch_subdir>  (993) 
/opt/xchem-fragalysis-2/maxwin/BulkDock/SCRATCH/511018/C6198-P82

>  <fragmenstein_runtime>  (993) 
22.98227882385254

>  <fragmenstein_outcome>  (993) 
too moved

>  <fragmenstein_mode>  (993) 
expansion

>  <fragmenstein_error>  (993) 


$$$$
C6198-P103
     RDKit          3D

 39 42  0  0  0  0  0  0  0  0999 V2000
   11.4510   -7.6665   24.6804 C   0  0  0  0  0  0  0  0  0  0  0  0
   11.9649   -8.6274   23.8133 C   0  0  0  0  0  0  0  0  0  0  0  0
   11.4340   -9.9212   23.7941 C   0  0  0  0  0  0  0  0  0  0  0  0
   10.3552  -10.1967   24.6511 C   0  0  0  0  0  0  0  0  0  0  0  0
    9.6159  -11.3381   24.8946 N   0  0  0  0  0  0  0  0  0  0  0  0
    8.6207  -11.0631   25.8198 C   0  0  0  0  0  0  0  0  0  0  0  0
    7.3522  -12.0416   26.1086 C   0  0  0  0  0  0  0  0  0  0  0  0
    6.5412  -11.9927   27.4674 C   0  0  0  0  0  0  0  0  0  0  0  0
    6.0019  -13.3949   27.0360 N   0  0  0  0  0  0  0  0  0  0  0  0
    5.4495  -14.3638   28.0814 C   0  0  0  0  0  0  0  0  0  0  0  0
    3.8113  -14.7440   27.9233 C   0  0  0  0  0  0  0  0  0  0  0  0
    2.9368  -15.8668   28.5573 C   0  0  0  0  0  0  0  0  0  0  0  0
    1.7889  -16.3196   27.8541 C   0  0  0  0  0  0  0  0  0  0  0  0
    0.8985  -17.2368   28.4287 C   0  0  0  0  0  0  0  0  0  0  0  0
    1.0449  -17.7397   29.6685 N   0  0  0  0  0  0  0  0  0  0  0  0
    2.1275  -17.2928   30.3462 C   0  0  0  0  0  0  0  0  0  0  0  0
    3.0760  -16.3764   29.8485 C   0  0  0  0  0  0  0  0  0  0  0  0
    7.4664  -13.5588   26.5869 C   0  0  0  0  0  0  0  0  0  0  0  0
    8.7133   -9.7897   26.1844 N   0  0  0  0  0  0  0  0  0  0  0  0
    9.7923   -9.2489   25.4921 C   0  0  0  0  0  0  0  0  0  0  0  0
   10.3554   -7.9587   25.5132 C   0  0  0  0  0  0  0  0  0  0  0  0
   11.8945   -6.6730   24.7124 H   0  0  0  0  0  0  0  0  0  0  0  0
   12.8103   -8.3813   23.1742 H   0  0  0  0  0  0  0  0  0  0  0  0
   11.8680  -10.6887   23.1621 H   0  0  0  0  0  0  0  0  0  0  0  0
    9.7272  -12.2168   24.4113 H   0  0  0  0  0  0  0  0  0  0  0  0
    6.7117  -11.9560   25.2188 H   0  0  0  0  0  0  0  0  0  0  0  0
    5.7983  -11.1994   27.5484 H   0  0  0  0  0  0  0  0  0  0  0  0
    7.1408  -11.9945   28.3881 H   0  0  0  0  0  0  0  0  0  0  0  0
    5.6192  -13.9782   29.0921 H   0  0  0  0  0  0  0  0  0  0  0  0
    5.9863  -15.3144   27.9844 H   0  0  0  0  0  0  0  0  0  0  0  0
    3.6909  -14.8735   26.8392 H   0  0  0  0  0  0  0  0  0  0  0  0
    3.2922  -13.8257   28.2191 H   0  0  0  0  0  0  0  0  0  0  0  0
    1.5773  -15.9414   26.8559 H   0  0  0  0  0  0  0  0  0  0  0  0
    0.0245  -17.5800   27.8833 H   0  0  0  0  0  0  0  0  0  0  0  0
    2.2322  -17.6934   31.3516 H   0  0  0  0  0  0  0  0  0  0  0  0
    3.8973  -16.0630   30.4847 H   0  0  0  0  0  0  0  0  0  0  0  0
    8.1832  -13.7587   27.3948 H   0  0  0  0  0  0  0  0  0  0  0  0
    7.6121  -14.3022   25.8033 H   0  0  0  0  0  0  0  0  0  0  0  0
    9.9513   -7.2049   26.1793 H   0  0  0  0  0  0  0  0  0  0  0  0
  1  2  2  0
  2  3  1  0
  3  4  2  0
  4  5  1  0
  5  6  1  0
  6  7  1  0
  7  8  1  0
  8  9  1  0
  9 10  1  0
 10 11  1  0
 11 12  1  0
 12 13  2  0
 13 14  1  0
 14 15  2  0
 15 16  1  0
 16 17  2  0
  9 18  1  0
  6 19  2  0
 19 20  1  0
 20 21  2  0
 21  1  1  0
 20  4  1  0
 18  7  1  0
 17 12  1  0
  1 22  1  0
  2 23  1  0
  3 24  1  0
  5 25  1  0
  7 26  1  0
  8 27  1  0
  8 28  1  0
 10 29  1  0
 10 30  1  0
 11 31  1  0
 11 32  1  0
 13 33  1  0
 14 34  1  0
 16 35  1  0
 17 36  1  0
 18 37  1  0
 18 38  1  0
 21 39  1  0
M  END
>  <Energy>  (994) 
101.9518368823487

>  <compound_id>  (994) 
6198

>  <target_id>  (994) 
1

>  <reference_id>  (994) 
103

>  <inspiration_ids>  (994) 
[82, 103]

>  <energy_score>  (994) 
16.082783166591582

>  <distance_score>  (994) 
15.146398227935764

>  <path>  (994) 
/opt/xchem-fragalysis-2/maxwin/BulkDock/SCRATCH/511018/C6198-P103/C6198-P103.minimised.mol

>  <scratch_subdir>  (994) 
/opt/xchem-fragalysis-2/maxwin/BulkDock/SCRATCH/511018/C6198-P103

>  <fragmenstein_runtime>  (994) 
36.385335206985474

>  <fragmenstein_outcome>  (994) 
too moved

>  <fragmenstein_mode>  (994) 
expansion

>  <fragmenstein_error>  (994) 


$$$$
C6200-P82
     RDKit          3D

 45 47  0  0  0  0  0  0  0  0999 V2000
   -9.2913  -23.4074   27.6491 C   0  0  0  0  0  0  0  0  0  0  0  0
   -7.6036  -22.4982   27.5399 C   0  0  0  0  0  0  0  0  0  0  0  0
   -6.6107  -21.0674   27.1162 C   0  0  0  0  0  0  0  0  0  0  0  0
   -5.8018  -21.5465   26.1485 C   0  0  0  0  0  0  0  0  0  0  0  0
   -5.2759  -20.4280   25.7157 C   0  0  0  0  0  0  0  0  0  0  0  0
   -5.7732  -19.2121   26.3184 N   0  0  0  0  0  0  0  0  0  0  0  0
   -5.3022  -18.3336   27.3993 C   0  0  0  0  0  0  0  0  0  0  0  0
   -3.5553  -17.0782   27.3077 C   0  0  0  0  0  0  0  0  0  0  0  0
   -2.1482  -15.5387   26.9983 N   0  0  0  0  0  0  0  0  0  0  0  0
   -1.3976  -14.7530   25.3414 C   0  0  0  0  0  0  0  0  0  0  0  0
   -1.8401  -15.0877   24.2920 O   0  0  0  0  0  0  0  0  0  0  0  0
    0.2739  -13.5835   25.7933 N   0  0  0  0  0  0  0  0  0  0  0  0
    1.7416  -12.8126   24.6521 C   0  0  0  0  0  0  0  0  0  0  0  0
    2.6459  -11.8602   23.2359 C   0  0  0  0  0  0  0  0  0  0  0  0
    3.8065  -10.3889   22.5205 C   0  0  0  0  0  0  0  0  0  0  0  0
    3.4401   -9.2207   21.9232 N   0  0  0  0  0  0  0  0  0  0  0  0
    4.5343   -8.5005   21.4629 C   0  0  0  0  0  0  0  0  0  0  0  0
    4.6252   -7.2893   20.7467 C   0  0  0  0  0  0  0  0  0  0  0  0
    5.8907   -6.7375   20.4769 C   0  0  0  0  0  0  0  0  0  0  0  0
    7.0482   -7.3799   20.9185 C   0  0  0  0  0  0  0  0  0  0  0  0
    6.9757   -8.6028   21.6015 C   0  0  0  0  0  0  0  0  0  0  0  0
    5.6946   -9.1280   21.8465 C   0  0  0  0  0  0  0  0  0  0  0  0
    5.2519  -10.2614   22.5027 N   0  0  0  0  0  0  0  0  0  0  0  0
   -6.2124  -19.4106   27.8508 C   0  0  0  0  0  0  0  0  0  0  0  0
   -9.2691  -24.2869   28.3266 H   0  0  0  0  0  0  0  0  0  0  0  0
   -9.6520  -23.8469   26.7108 H   0  0  0  0  0  0  0  0  0  0  0  0
  -10.0874  -22.7455   28.0460 H   0  0  0  0  0  0  0  0  0  0  0  0
   -8.1582  -21.7214   27.8913 H   0  0  0  0  0  0  0  0  0  0  0  0
   -6.9749  -23.0628   28.2008 H   0  0  0  0  0  0  0  0  0  0  0  0
   -5.6574  -22.5387   25.7802 H   0  0  0  0  0  0  0  0  0  0  0  0
   -4.3808  -20.4054   25.1208 H   0  0  0  0  0  0  0  0  0  0  0  0
   -2.7541  -17.8058   27.2496 H   0  0  0  0  0  0  0  0  0  0  0  0
   -3.7112  -16.5908   28.2628 H   0  0  0  0  0  0  0  0  0  0  0  0
   -1.7227  -15.0902   27.8009 H   0  0  0  0  0  0  0  0  0  0  0  0
    0.4570  -13.5390   26.7595 H   0  0  0  0  0  0  0  0  0  0  0  0
    2.6201  -13.3681   24.9193 H   0  0  0  0  0  0  0  0  0  0  0  0
    1.6452  -11.9430   25.2863 H   0  0  0  0  0  0  0  0  0  0  0  0
    1.6470  -11.6561   22.8419 H   0  0  0  0  0  0  0  0  0  0  0  0
    3.2143  -12.6620   22.7901 H   0  0  0  0  0  0  0  0  0  0  0  0
    3.7121   -6.7918   20.4365 H   0  0  0  0  0  0  0  0  0  0  0  0
    5.9501   -5.7920   19.9461 H   0  0  0  0  0  0  0  0  0  0  0  0
    8.0215   -6.9276   20.7497 H   0  0  0  0  0  0  0  0  0  0  0  0
    7.8725   -9.1108   21.9395 H   0  0  0  0  0  0  0  0  0  0  0  0
    5.8965  -10.8126   23.0396 H   0  0  0  0  0  0  0  0  0  0  0  0
   -6.8647  -19.0708   28.6618 H   0  0  0  0  0  0  0  0  0  0  0  0
  1  2  1  0
  2  3  1  0
  3  4  2  0
  4  5  1  0
  5  6  2  0
  6  7  1  0
  7  8  1  0
  8  9  1  0
  9 10  1  0
 10 11  2  0
 10 12  1  0
 12 13  1  0
 13 14  1  0
 14 15  1  0
 15 16  2  0
 16 17  1  0
 17 18  2  0
 18 19  1  0
 19 20  2  0
 20 21  1  0
 21 22  2  0
 22 23  1  0
  7 24  2  0
 24  3  1  0
 23 15  1  0
 22 17  1  0
  1 25  1  0
  1 26  1  0
  1 27  1  0
  2 28  1  0
  2 29  1  0
  4 30  1  0
  5 31  1  0
  8 32  1  0
  8 33  1  0
  9 34  1  0
 12 35  1  0
 13 36  1  0
 13 37  1  0
 14 38  1  0
 14 39  1  0
 18 40  1  0
 19 41  1  0
 20 42  1  0
 21 43  1  0
 23 44  1  0
 24 45  1  0
M  END
>  <Energy>  (995) 
1265.6945141362012

>  <compound_id>  (995) 
6200

>  <target_id>  (995) 
1

>  <reference_id>  (995) 
82

>  <inspiration_ids>  (995) 
[82, 103]

>  <energy_score>  (995) 
1295.5958646148695

>  <distance_score>  (995) 
12.331136695115301

>  <path>  (995) 
/opt/xchem-fragalysis-2/maxwin/BulkDock/SCRATCH/511018/C6200-P82/C6200-P82.minimised.mol

>  <scratch_subdir>  (995) 
/opt/xchem-fragalysis-2/maxwin/BulkDock/SCRATCH/511018/C6200-P82

>  <fragmenstein_runtime>  (995) 
28.673412084579468

>  <fragmenstein_outcome>  (995) 
too moved

>  <fragmenstein_mode>  (995) 
expansion

>  <fragmenstein_error>  (995) 


$$$$
C6200-P103
     RDKit          3D

 45 47  0  0  0  0  0  0  0  0999 V2000
   -6.3829  -17.6910   28.8804 C   0  0  0  0  0  0  0  0  0  0  0  0
   -5.2774  -18.1488   27.6152 C   0  0  0  0  0  0  0  0  0  0  0  0
   -3.6482  -17.0416   27.0431 C   0  0  0  0  0  0  0  0  0  0  0  0
   -2.4814  -17.4573   27.3931 C   0  0  0  0  0  0  0  0  0  0  0  0
   -1.9578  -18.0123   26.3331 C   0  0  0  0  0  0  0  0  0  0  0  0
   -2.1653  -17.1848   25.1527 N   0  0  0  0  0  0  0  0  0  0  0  0
   -2.2124  -15.7029   24.6654 C   0  0  0  0  0  0  0  0  0  0  0  0
   -0.9587  -14.1893   24.2367 C   0  0  0  0  0  0  0  0  0  0  0  0
   -0.2678  -13.0189   22.7033 N   0  0  0  0  0  0  0  0  0  0  0  0
   -0.5126  -11.0538   22.2285 C   0  0  0  0  0  0  0  0  0  0  0  0
   -1.1578  -10.2618   22.7083 O   0  0  0  0  0  0  0  0  0  0  0  0
    0.4757  -10.3741   21.0052 N   0  0  0  0  0  0  0  0  0  0  0  0
    0.7256   -8.8864   20.5159 C   0  0  0  0  0  0  0  0  0  0  0  0
    2.2791   -8.5651   20.2457 C   0  0  0  0  0  0  0  0  0  0  0  0
    3.0983   -7.2792   20.1327 C   0  0  0  0  0  0  0  0  0  0  0  0
    2.8521   -5.9867   20.2529 N   0  0  0  0  0  0  0  0  0  0  0  0
    4.0942   -5.3759   20.4329 C   0  0  0  0  0  0  0  0  0  0  0  0
    4.4232   -4.0568   20.7857 C   0  0  0  0  0  0  0  0  0  0  0  0
    5.7604   -3.7498   21.0946 C   0  0  0  0  0  0  0  0  0  0  0  0
    6.7667   -4.7175   21.0041 C   0  0  0  0  0  0  0  0  0  0  0  0
    6.4733   -6.0143   20.5789 C   0  0  0  0  0  0  0  0  0  0  0  0
    5.1271   -6.2959   20.3176 C   0  0  0  0  0  0  0  0  0  0  0  0
    4.4769   -7.4543   19.9906 N   0  0  0  0  0  0  0  0  0  0  0  0
   -3.1931  -16.1899   25.3836 C   0  0  0  0  0  0  0  0  0  0  0  0
   -6.1096  -16.7638   29.4000 H   0  0  0  0  0  0  0  0  0  0  0  0
   -6.4198  -18.4732   29.6349 H   0  0  0  0  0  0  0  0  0  0  0  0
   -7.3697  -17.6022   28.4242 H   0  0  0  0  0  0  0  0  0  0  0  0
   -5.4387  -19.1735   27.8667 H   0  0  0  0  0  0  0  0  0  0  0  0
   -5.9095  -18.5131   26.8166 H   0  0  0  0  0  0  0  0  0  0  0  0
   -1.8409  -16.6024   27.6283 H   0  0  0  0  0  0  0  0  0  0  0  0
   -1.0236  -18.5343   26.3742 H   0  0  0  0  0  0  0  0  0  0  0  0
   -1.4129  -13.5939   25.0535 H   0  0  0  0  0  0  0  0  0  0  0  0
   -1.2585  -14.7470   23.3500 H   0  0  0  0  0  0  0  0  0  0  0  0
    0.2671  -13.5043   22.0859 H   0  0  0  0  0  0  0  0  0  0  0  0
    1.0324  -11.0376   20.7119 H   0  0  0  0  0  0  0  0  0  0  0  0
    0.3247   -8.2330   21.2955 H   0  0  0  0  0  0  0  0  0  0  0  0
    0.1461   -8.7616   19.5972 H   0  0  0  0  0  0  0  0  0  0  0  0
    2.7841   -9.0183   21.1075 H   0  0  0  0  0  0  0  0  0  0  0  0
    2.5380   -9.1364   19.3436 H   0  0  0  0  0  0  0  0  0  0  0  0
    3.6363   -3.3182   20.8924 H   0  0  0  0  0  0  0  0  0  0  0  0
    6.0044   -2.7442   21.4289 H   0  0  0  0  0  0  0  0  0  0  0  0
    7.7876   -4.4578   21.2782 H   0  0  0  0  0  0  0  0  0  0  0  0
    7.2350   -6.7839   20.5351 H   0  0  0  0  0  0  0  0  0  0  0  0
    4.9107   -8.3595   19.8996 H   0  0  0  0  0  0  0  0  0  0  0  0
   -4.0364  -15.7460   24.8252 H   0  0  0  0  0  0  0  0  0  0  0  0
  1  2  1  0
  2  3  1  0
  3  4  2  0
  4  5  1  0
  5  6  2  0
  6  7  1  0
  7  8  1  0
  8  9  1  0
  9 10  1  0
 10 11  2  0
 10 12  1  0
 12 13  1  0
 13 14  1  0
 14 15  1  0
 15 16  2  0
 16 17  1  0
 17 18  2  0
 18 19  1  0
 19 20  2  0
 20 21  1  0
 21 22  2  0
 22 23  1  0
  7 24  2  0
 24  3  1  0
 23 15  1  0
 22 17  1  0
  1 25  1  0
  1 26  1  0
  1 27  1  0
  2 28  1  0
  2 29  1  0
  4 30  1  0
  5 31  1  0
  8 32  1  0
  8 33  1  0
  9 34  1  0
 12 35  1  0
 13 36  1  0
 13 37  1  0
 14 38  1  0
 14 39  1  0
 18 40  1  0
 19 41  1  0
 20 42  1  0
 21 43  1  0
 23 44  1  0
 24 45  1  0
M  END
>  <Energy>  (996) 
949.61502835049851

>  <compound_id>  (996) 
6200

>  <target_id>  (996) 
1

>  <reference_id>  (996) 
103

>  <inspiration_ids>  (996) 
[82, 103]

>  <energy_score>  (996) 
979.5163788291582

>  <distance_score>  (996) 
12.463798160028361

>  <path>  (996) 
/opt/xchem-fragalysis-2/maxwin/BulkDock/SCRATCH/511018/C6200-P103/C6200-P103.minimised.mol

>  <scratch_subdir>  (996) 
/opt/xchem-fragalysis-2/maxwin/BulkDock/SCRATCH/511018/C6200-P103

>  <fragmenstein_runtime>  (996) 
48.12492489814758

>  <fragmenstein_outcome>  (996) 
too moved

>  <fragmenstein_mode>  (996) 
expansion

>  <fragmenstein_error>  (996) 


$$$$
C6203-P82
     RDKit          3D

 41 44  0  0  0  0  0  0  0  0999 V2000
    1.2554  -13.5576   25.7927 O   0  0  0  0  0  0  0  0  0  0  0  0
    0.8125  -13.5261   26.8814 C   0  0  0  0  0  0  0  0  0  0  0  0
    1.2789  -12.0695   28.0984 N   0  0  0  0  0  0  0  0  0  0  0  0
    2.0876  -10.8067   27.8964 C   0  0  0  0  0  0  0  0  0  0  0  0
    3.5990  -10.1516   28.8251 C   0  0  0  0  0  0  0  0  0  0  0  0
    4.5135   -8.9597   28.4881 N   0  0  0  0  0  0  0  0  0  0  0  0
    4.2032   -7.6371   28.7689 C   0  0  0  0  0  0  0  0  0  0  0  0
    4.9476   -6.7768   28.1011 N   0  0  0  0  0  0  0  0  0  0  0  0
    5.8943   -7.5202   27.4500 C   0  0  0  0  0  0  0  0  0  0  0  0
    6.8999   -7.0813   26.5590 C   0  0  0  0  0  0  0  0  0  0  0  0
    7.7585   -8.0175   25.9825 C   0  0  0  0  0  0  0  0  0  0  0  0
    7.6315   -9.3637   26.3211 C   0  0  0  0  0  0  0  0  0  0  0  0
    6.6270   -9.8219   27.2075 C   0  0  0  0  0  0  0  0  0  0  0  0
    5.7184   -8.8875   27.7372 C   0  0  0  0  0  0  0  0  0  0  0  0
   -0.4007  -14.9394   27.9158 C   0  0  0  0  0  0  0  0  0  0  0  0
   -1.7835  -15.3118   27.7179 C   0  0  0  0  0  0  0  0  0  0  0  0
   -2.2040  -16.7109   27.3271 C   0  0  0  0  0  0  0  0  0  0  0  0
   -1.2575  -17.7412   27.1203 C   0  0  0  0  0  0  0  0  0  0  0  0
    0.0681  -17.6903   27.6150 N   0  0  0  0  0  0  0  0  0  0  0  0
    0.5312  -16.5432   28.5004 C   0  0  0  0  0  0  0  0  0  0  0  0
    0.7285  -17.5458   30.1333 C   0  0  0  0  0  0  0  0  0  0  0  0
    0.2618  -19.3551   29.7906 C   0  0  0  0  0  0  0  0  0  0  0  0
   -0.1922  -18.7101   30.8684 C   0  0  0  0  0  0  0  0  0  0  0  0
    0.7487  -12.1573   28.9416 H   0  0  0  0  0  0  0  0  0  0  0  0
    2.1112  -10.6847   26.8811 H   0  0  0  0  0  0  0  0  0  0  0  0
    1.3743  -10.0509   28.2636 H   0  0  0  0  0  0  0  0  0  0  0  0
    3.2290   -9.9343   29.8339 H   0  0  0  0  0  0  0  0  0  0  0  0
    4.3519  -10.9313   28.8486 H   0  0  0  0  0  0  0  0  0  0  0  0
    3.3707   -7.3744   29.4087 H   0  0  0  0  0  0  0  0  0  0  0  0
    6.9940   -6.0234   26.3386 H   0  0  0  0  0  0  0  0  0  0  0  0
    8.5398   -7.6938   25.3004 H   0  0  0  0  0  0  0  0  0  0  0  0
    8.3229  -10.0879   25.8921 H   0  0  0  0  0  0  0  0  0  0  0  0
    6.5395  -10.8809   27.4338 H   0  0  0  0  0  0  0  0  0  0  0  0
   -2.4201  -14.8454   28.4477 H   0  0  0  0  0  0  0  0  0  0  0  0
   -3.2245  -17.0512   27.3928 H   0  0  0  0  0  0  0  0  0  0  0  0
   -1.6247  -18.6272   26.6443 H   0  0  0  0  0  0  0  0  0  0  0  0
    1.6430  -17.2359   30.5967 H   0  0  0  0  0  0  0  0  0  0  0  0
   -0.4997  -19.7867   29.1662 H   0  0  0  0  0  0  0  0  0  0  0  0
    0.8306  -20.2509   30.1320 H   0  0  0  0  0  0  0  0  0  0  0  0
   -1.1889  -18.6411   31.2939 H   0  0  0  0  0  0  0  0  0  0  0  0
   -0.0659  -19.6591   31.4474 H   0  0  0  0  0  0  0  0  0  0  0  0
  1  2  2  0
  2  3  1  0
  3  4  1  0
  4  5  1  0
  5  6  1  0
  6  7  1  0
  7  8  2  0
  8  9  1  0
  9 10  2  0
 10 11  1  0
 11 12  2  0
 12 13  1  0
 13 14  2  0
  2 15  1  0
 15 16  2  0
 16 17  1  0
 17 18  2  0
 18 19  1  0
 19 20  2  0
 20 21  1  0
 21 22  1  0
 22 23  1  0
 14  6  1  0
 20 15  1  0
 23 21  1  0
 14  9  1  0
  3 24  1  0
  4 25  1  0
  4 26  1  0
  5 27  1  0
  5 28  1  0
  7 29  1  0
 10 30  1  0
 11 31  1  0
 12 32  1  0
 13 33  1  0
 16 34  1  0
 17 35  1  0
 18 36  1  0
 21 37  1  0
 22 38  1  0
 22 39  1  0
 23 40  1  0
 23 41  1  0
M  END
>  <Energy>  (997) 
650.19253252810165

>  <compound_id>  (997) 
6203

>  <target_id>  (997) 
1

>  <reference_id>  (997) 
82

>  <inspiration_ids>  (997) 
[82, 103]

>  <energy_score>  (997) 
578.001812552611

>  <distance_score>  (997) 
15.057789614368808

>  <path>  (997) 
/opt/xchem-fragalysis-2/maxwin/BulkDock/SCRATCH/511018/C6203-P82/C6203-P82.minimised.mol

>  <scratch_subdir>  (997) 
/opt/xchem-fragalysis-2/maxwin/BulkDock/SCRATCH/511018/C6203-P82

>  <fragmenstein_runtime>  (997) 
25.334309339523315

>  <fragmenstein_outcome>  (997) 
too moved

>  <fragmenstein_mode>  (997) 
expansion

>  <fragmenstein_error>  (997) 


$$$$
C6203-P103
     RDKit          3D

 41 44  0  0  0  0  0  0  0  0999 V2000
   -2.6401  -16.1779   27.1597 O   0  0  0  0  0  0  0  0  0  0  0  0
   -2.2652  -15.6222   28.1349 C   0  0  0  0  0  0  0  0  0  0  0  0
   -1.0930  -14.6527   28.3305 N   0  0  0  0  0  0  0  0  0  0  0  0
    0.2684  -13.7404   26.9969 C   0  0  0  0  0  0  0  0  0  0  0  0
    1.0230  -11.7490   27.3187 C   0  0  0  0  0  0  0  0  0  0  0  0
    1.5453  -10.6062   28.3172 N   0  0  0  0  0  0  0  0  0  0  0  0
    2.7324  -10.5722   28.9686 C   0  0  0  0  0  0  0  0  0  0  0  0
    3.2825   -9.4076   29.1880 N   0  0  0  0  0  0  0  0  0  0  0  0
    2.3590   -8.5039   28.7942 C   0  0  0  0  0  0  0  0  0  0  0  0
    2.5251   -7.1071   28.6570 C   0  0  0  0  0  0  0  0  0  0  0  0
    1.5484   -6.3738   27.9903 C   0  0  0  0  0  0  0  0  0  0  0  0
    0.3822   -7.0100   27.5777 C   0  0  0  0  0  0  0  0  0  0  0  0
    0.1694   -8.3910   27.7830 C   0  0  0  0  0  0  0  0  0  0  0  0
    1.2174   -9.1735   28.3114 C   0  0  0  0  0  0  0  0  0  0  0  0
   -3.4616  -15.8713   29.8808 C   0  0  0  0  0  0  0  0  0  0  0  0
   -5.0566  -16.3236   29.9203 C   0  0  0  0  0  0  0  0  0  0  0  0
   -5.8755  -17.0796   30.9077 C   0  0  0  0  0  0  0  0  0  0  0  0
   -5.2583  -17.7861   31.9242 C   0  0  0  0  0  0  0  0  0  0  0  0
   -3.8857  -17.7520   32.0628 N   0  0  0  0  0  0  0  0  0  0  0  0
   -3.1884  -16.6042   31.5141 C   0  0  0  0  0  0  0  0  0  0  0  0
   -3.6615  -16.0208   33.2453 C   0  0  0  0  0  0  0  0  0  0  0  0
   -3.4311  -16.7448   34.5825 C   0  0  0  0  0  0  0  0  0  0  0  0
   -2.9685  -15.3182   34.3891 C   0  0  0  0  0  0  0  0  0  0  0  0
   -1.0048  -14.4284   29.3168 H   0  0  0  0  0  0  0  0  0  0  0  0
    1.1821  -14.3200   26.8250 H   0  0  0  0  0  0  0  0  0  0  0  0
   -0.0269  -13.3955   26.0149 H   0  0  0  0  0  0  0  0  0  0  0  0
    0.2314  -10.9456   27.4045 H   0  0  0  0  0  0  0  0  0  0  0  0
    1.3468  -11.5849   26.3247 H   0  0  0  0  0  0  0  0  0  0  0  0
    3.2048  -11.4993   29.0893 H   0  0  0  0  0  0  0  0  0  0  0  0
    3.4434   -6.6424   28.9979 H   0  0  0  0  0  0  0  0  0  0  0  0
    1.6807   -5.3082   27.8297 H   0  0  0  0  0  0  0  0  0  0  0  0
   -0.4011   -6.4223   27.1020 H   0  0  0  0  0  0  0  0  0  0  0  0
   -0.7668   -8.8347   27.4679 H   0  0  0  0  0  0  0  0  0  0  0  0
   -5.8056  -16.0447   29.1872 H   0  0  0  0  0  0  0  0  0  0  0  0
   -6.9435  -17.1800   30.7502 H   0  0  0  0  0  0  0  0  0  0  0  0
   -5.7869  -18.4712   32.5781 H   0  0  0  0  0  0  0  0  0  0  0  0
   -4.7609  -15.9624   33.2728 H   0  0  0  0  0  0  0  0  0  0  0  0
   -4.3004  -16.8989   35.2208 H   0  0  0  0  0  0  0  0  0  0  0  0
   -2.7639  -17.5890   34.6762 H   0  0  0  0  0  0  0  0  0  0  0  0
   -1.9299  -15.0461   34.3704 H   0  0  0  0  0  0  0  0  0  0  0  0
   -3.5316  -14.5573   34.9269 H   0  0  0  0  0  0  0  0  0  0  0  0
  1  2  2  0
  2  3  1  0
  3  4  1  0
  4  5  1  0
  5  6  1  0
  6  7  1  0
  7  8  2  0
  8  9  1  0
  9 10  2  0
 10 11  1  0
 11 12  2  0
 12 13  1  0
 13 14  2  0
  2 15  1  0
 15 16  2  0
 16 17  1  0
 17 18  2  0
 18 19  1  0
 19 20  2  0
 20 21  1  0
 21 22  1  0
 22 23  1  0
 14  6  1  0
 20 15  1  0
 23 21  1  0
 14  9  1  0
  3 24  1  0
  4 25  1  0
  4 26  1  0
  5 27  1  0
  5 28  1  0
  7 29  1  0
 10 30  1  0
 11 31  1  0
 12 32  1  0
 13 33  1  0
 16 34  1  0
 17 35  1  0
 18 36  1  0
 21 37  1  0
 22 38  1  0
 22 39  1  0
 23 40  1  0
 23 41  1  0
M  END
>  <Energy>  (998) 
751.45880048997356

>  <compound_id>  (998) 
6203

>  <target_id>  (998) 
1

>  <reference_id>  (998) 
103

>  <inspiration_ids>  (998) 
[82, 103]

>  <energy_score>  (998) 
679.2680805144673

>  <distance_score>  (998) 
15.917324382691902

>  <path>  (998) 
/opt/xchem-fragalysis-2/maxwin/BulkDock/SCRATCH/511018/C6203-P103/C6203-P103.minimised.mol

>  <scratch_subdir>  (998) 
/opt/xchem-fragalysis-2/maxwin/BulkDock/SCRATCH/511018/C6203-P103

>  <fragmenstein_runtime>  (998) 
30.413522005081177

>  <fragmenstein_outcome>  (998) 
too moved

>  <fragmenstein_mode>  (998) 
expansion

>  <fragmenstein_error>  (998) 


$$$$
C6204-P82
     RDKit          3D

 39 43  0  0  0  0  0  0  0  0999 V2000
   -1.1774  -13.4771   25.4667 O   0  0  0  0  0  0  0  0  0  0  0  0
   -0.8769  -14.2896   24.6689 C   0  0  0  0  0  0  0  0  0  0  0  0
   -1.6539  -15.4757   24.3003 N   0  0  0  0  0  0  0  0  0  0  0  0
   -3.0497  -16.1175   24.9109 C   0  0  0  0  0  0  0  0  0  0  0  0
   -3.0249  -17.6487   25.4801 C   0  0  0  0  0  0  0  0  0  0  0  0
   -3.4361  -16.5628   26.3250 C   0  0  0  0  0  0  0  0  0  0  0  0
   -4.5784  -16.7113   27.2636 C   0  0  0  0  0  0  0  0  0  0  0  0
   -3.1986  -16.2611   27.7370 C   0  0  0  0  0  0  0  0  0  0  0  0
    0.9742  -14.0163   23.9277 C   0  0  0  0  0  0  0  0  0  0  0  0
    2.1037  -12.7377   23.9839 C   0  0  0  0  0  0  0  0  0  0  0  0
    3.2336  -12.3262   22.7270 C   0  0  0  0  0  0  0  0  0  0  0  0
    3.5762  -13.0823   21.4791 C   0  0  0  0  0  0  0  0  0  0  0  0
    4.7256  -12.7890   20.2473 N   0  0  0  0  0  0  0  0  0  0  0  0
    5.8060  -11.9103   20.3494 C   0  0  0  0  0  0  0  0  0  0  0  0
    6.2750  -11.3577   19.2519 N   0  0  0  0  0  0  0  0  0  0  0  0
    5.5699  -11.9742   18.2469 C   0  0  0  0  0  0  0  0  0  0  0  0
    5.6064  -11.6470   16.8657 C   0  0  0  0  0  0  0  0  0  0  0  0
    4.8991  -12.4364   15.9784 C   0  0  0  0  0  0  0  0  0  0  0  0
    4.1543  -13.5049   16.4674 C   0  0  0  0  0  0  0  0  0  0  0  0
    4.0415  -13.7909   17.8476 C   0  0  0  0  0  0  0  0  0  0  0  0
    4.7436  -13.0055   18.7803 C   0  0  0  0  0  0  0  0  0  0  0  0
    3.1693  -14.3749   21.9106 N   0  0  0  0  0  0  0  0  0  0  0  0
    2.4268  -14.6047   23.2434 C   0  0  0  0  0  0  0  0  0  0  0  0
   -1.2185  -15.9020   23.5796 H   0  0  0  0  0  0  0  0  0  0  0  0
   -3.8243  -16.0421   24.1335 H   0  0  0  0  0  0  0  0  0  0  0  0
   -2.1317  -18.1516   25.8252 H   0  0  0  0  0  0  0  0  0  0  0  0
   -3.8049  -18.3296   25.1517 H   0  0  0  0  0  0  0  0  0  0  0  0
   -4.8923  -17.7090   27.5532 H   0  0  0  0  0  0  0  0  0  0  0  0
   -5.3829  -15.9925   27.2960 H   0  0  0  0  0  0  0  0  0  0  0  0
   -3.0689  -15.2223   28.0172 H   0  0  0  0  0  0  0  0  0  0  0  0
   -2.6040  -16.9539   28.3196 H   0  0  0  0  0  0  0  0  0  0  0  0
    1.8534  -11.9395   24.6370 H   0  0  0  0  0  0  0  0  0  0  0  0
    3.6383  -11.3393   22.6265 H   0  0  0  0  0  0  0  0  0  0  0  0
    6.0987  -11.4988   21.2770 H   0  0  0  0  0  0  0  0  0  0  0  0
    6.2183  -10.8220   16.5217 H   0  0  0  0  0  0  0  0  0  0  0  0
    4.9379  -12.2321   14.9128 H   0  0  0  0  0  0  0  0  0  0  0  0
    3.6064  -14.1297   15.7633 H   0  0  0  0  0  0  0  0  0  0  0  0
    3.3799  -14.5877   18.1716 H   0  0  0  0  0  0  0  0  0  0  0  0
    3.3748  -14.5885   23.8647 H   0  0  0  0  0  0  0  0  0  0  0  0
  1  2  2  0
  2  3  1  0
  3  4  1  0
  4  5  1  0
  5  6  1  0
  6  7  1  0
  7  8  1  0
  2  9  1  0
  9 10  2  0
 10 11  1  0
 11 12  2  0
 12 13  1  0
 13 14  1  0
 14 15  2  0
 15 16  1  0
 16 17  2  0
 17 18  1  0
 18 19  2  0
 19 20  1  0
 20 21  2  0
 12 22  1  0
 22 23  2  0
  6  4  1  0
 23  9  1  0
  8  6  1  0
 21 13  1  0
 21 16  1  0
  3 24  1  0
  4 25  1  0
  5 26  1  0
  5 27  1  0
  7 28  1  0
  7 29  1  0
  8 30  1  0
  8 31  1  0
 10 32  1  0
 11 33  1  0
 14 34  1  0
 17 35  1  0
 18 36  1  0
 19 37  1  0
 20 38  1  0
 23 39  1  0
M  END
>  <Energy>  (999) 
531.44415278287033

>  <compound_id>  (999) 
6204

>  <target_id>  (999) 
1

>  <reference_id>  (999) 
82

>  <inspiration_ids>  (999) 
[82, 103]

>  <energy_score>  (999) 
418.83483504972395

>  <distance_score>  (999) 
14.330071681267308

>  <path>  (999) 
/opt/xchem-fragalysis-2/maxwin/BulkDock/SCRATCH/511018/C6204-P82/C6204-P82.minimised.mol

>  <scratch_subdir>  (999) 
/opt/xchem-fragalysis-2/maxwin/BulkDock/SCRATCH/511018/C6204-P82

>  <fragmenstein_runtime>  (999) 
26.007115364074707

>  <fragmenstein_outcome>  (999) 
too moved

>  <fragmenstein_mode>  (999) 
expansion

>  <fragmenstein_error>  (999) 


$$$$
C6204-P103
     RDKit          3D

 39 43  0  0  0  0  0  0  0  0999 V2000
   -0.1304  -14.3277   22.6462 O   0  0  0  0  0  0  0  0  0  0  0  0
   -0.5935  -13.4753   23.3380 C   0  0  0  0  0  0  0  0  0  0  0  0
   -1.5503  -13.6080   25.0213 N   0  0  0  0  0  0  0  0  0  0  0  0
   -2.0865  -14.9026   25.8254 C   0  0  0  0  0  0  0  0  0  0  0  0
   -2.6488  -14.9491   27.4327 C   0  0  0  0  0  0  0  0  0  0  0  0
   -3.1838  -15.8612   26.5066 C   0  0  0  0  0  0  0  0  0  0  0  0
   -3.1859  -17.3609   26.7588 C   0  0  0  0  0  0  0  0  0  0  0  0
   -4.4085  -16.6614   26.2708 C   0  0  0  0  0  0  0  0  0  0  0  0
   -0.4706  -11.6128   22.3663 C   0  0  0  0  0  0  0  0  0  0  0  0
    0.3337  -10.6646   22.0294 C   0  0  0  0  0  0  0  0  0  0  0  0
    0.2976   -9.2742   21.4767 C   0  0  0  0  0  0  0  0  0  0  0  0
   -0.7193   -8.7687   20.7582 C   0  0  0  0  0  0  0  0  0  0  0  0
   -0.4619   -7.4655   20.1052 N   0  0  0  0  0  0  0  0  0  0  0  0
   -0.6097   -6.2867   20.8377 C   0  0  0  0  0  0  0  0  0  0  0  0
    0.1459   -5.2838   20.4420 N   0  0  0  0  0  0  0  0  0  0  0  0
    0.8664   -5.7693   19.3911 C   0  0  0  0  0  0  0  0  0  0  0  0
    1.8667   -5.1118   18.6355 C   0  0  0  0  0  0  0  0  0  0  0  0
    2.4959   -5.7797   17.5832 C   0  0  0  0  0  0  0  0  0  0  0  0
    2.1176   -7.0830   17.2801 C   0  0  0  0  0  0  0  0  0  0  0  0
    1.1277   -7.7558   18.0305 C   0  0  0  0  0  0  0  0  0  0  0  0
    0.5084   -7.0985   19.1152 C   0  0  0  0  0  0  0  0  0  0  0  0
   -1.7280   -9.6585   20.6299 N   0  0  0  0  0  0  0  0  0  0  0  0
   -1.5374  -10.9914   21.3020 C   0  0  0  0  0  0  0  0  0  0  0  0
   -1.8921  -12.7101   25.3285 H   0  0  0  0  0  0  0  0  0  0  0  0
   -2.3178  -15.4291   24.8776 H   0  0  0  0  0  0  0  0  0  0  0  0
   -1.9717  -15.3270   28.1924 H   0  0  0  0  0  0  0  0  0  0  0  0
   -3.3743  -14.2618   27.8511 H   0  0  0  0  0  0  0  0  0  0  0  0
   -2.6802  -18.0208   26.0671 H   0  0  0  0  0  0  0  0  0  0  0  0
   -3.1736  -17.7051   27.7873 H   0  0  0  0  0  0  0  0  0  0  0  0
   -5.2334  -16.5556   26.9667 H   0  0  0  0  0  0  0  0  0  0  0  0
   -4.7141  -16.8600   25.2500 H   0  0  0  0  0  0  0  0  0  0  0  0
    1.1297  -11.2892   22.4160 H   0  0  0  0  0  0  0  0  0  0  0  0
    1.1420   -8.6451   21.6686 H   0  0  0  0  0  0  0  0  0  0  0  0
   -1.2723   -6.2648   21.6930 H   0  0  0  0  0  0  0  0  0  0  0  0
    2.1326   -4.0910   18.8884 H   0  0  0  0  0  0  0  0  0  0  0  0
    3.2582   -5.2757   16.9970 H   0  0  0  0  0  0  0  0  0  0  0  0
    2.5877   -7.6019   16.4470 H   0  0  0  0  0  0  0  0  0  0  0  0
    0.8398   -8.7617   17.7554 H   0  0  0  0  0  0  0  0  0  0  0  0
   -2.3377  -11.6392   20.9337 H   0  0  0  0  0  0  0  0  0  0  0  0
  1  2  2  0
  2  3  1  0
  3  4  1  0
  4  5  1  0
  5  6  1  0
  6  7  1  0
  7  8  1  0
  2  9  1  0
  9 10  2  0
 10 11  1  0
 11 12  2  0
 12 13  1  0
 13 14  1  0
 14 15  2  0
 15 16  1  0
 16 17  2  0
 17 18  1  0
 18 19  2  0
 19 20  1  0
 20 21  2  0
 12 22  1  0
 22 23  2  0
  6  4  1  0
 23  9  1  0
  8  6  1  0
 21 13  1  0
 21 16  1  0
  3 24  1  0
  4 25  1  0
  5 26  1  0
  5 27  1  0
  7 28  1  0
  7 29  1  0
  8 30  1  0
  8 31  1  0
 10 32  1  0
 11 33  1  0
 14 34  1  0
 17 35  1  0
 18 36  1  0
 19 37  1  0
 20 38  1  0
 23 39  1  0
M  END
>  <Energy>  (1000) 
506.629639828253

>  <compound_id>  (1000) 
6204

>  <target_id>  (1000) 
1

>  <reference_id>  (1000) 
103

>  <inspiration_ids>  (1000) 
[82, 103]

>  <energy_score>  (1000) 
394.0203220951062

>  <distance_score>  (1000) 
14.633128588022304

>  <path>  (1000) 
/opt/xchem-fragalysis-2/maxwin/BulkDock/SCRATCH/511018/C6204-P103/C6204-P103.minimised.mol

>  <scratch_subdir>  (1000) 
/opt/xchem-fragalysis-2/maxwin/BulkDock/SCRATCH/511018/C6204-P103

>  <fragmenstein_runtime>  (1000) 
26.730628967285156

>  <fragmenstein_outcome>  (1000) 
too moved

>  <fragmenstein_mode>  (1000) 
expansion

>  <fragmenstein_error>  (1000) 


$$$$
C6206-P82
     RDKit          3D

 40 43  0  0  0  0  0  0  0  0999 V2000
   -0.3731  -13.5800   22.9972 C   0  0  0  0  0  0  0  0  0  0  0  0
   -1.0326  -14.5852   24.2593 C   0  0  0  0  0  0  0  0  0  0  0  0
   -2.5679  -15.6360   24.3590 C   0  0  0  0  0  0  0  0  0  0  0  0
   -3.1589  -16.5596   25.6889 C   0  0  0  0  0  0  0  0  0  0  0  0
   -3.1298  -16.0257   27.0930 C   0  0  0  0  0  0  0  0  0  0  0  0
   -2.8951  -14.6211   26.9878 N   0  0  0  0  0  0  0  0  0  0  0  0
   -2.1877  -14.0488   25.6313 C   0  0  0  0  0  0  0  0  0  0  0  0
   -1.0840  -11.9189   21.8369 C   0  0  0  0  0  0  0  0  0  0  0  0
   -2.0141  -12.0383   20.6987 C   0  0  0  0  0  0  0  0  0  0  0  0
   -2.5909  -10.9160   20.0963 C   0  0  0  0  0  0  0  0  0  0  0  0
   -2.1369   -9.6290   20.3800 C   0  0  0  0  0  0  0  0  0  0  0  0
   -0.9965   -9.4265   21.1680 C   0  0  0  0  0  0  0  0  0  0  0  0
   -0.2232   -8.1561   20.7192 N   0  0  0  0  0  0  0  0  0  0  0  0
   -0.2568   -7.7220   19.3725 C   0  0  0  0  0  0  0  0  0  0  0  0
    0.4348   -6.6460   19.0884 N   0  0  0  0  0  0  0  0  0  0  0  0
    0.9492   -6.2659   20.2786 C   0  0  0  0  0  0  0  0  0  0  0  0
    1.7904   -5.1522   20.4985 C   0  0  0  0  0  0  0  0  0  0  0  0
    2.2259   -4.8844   21.7860 C   0  0  0  0  0  0  0  0  0  0  0  0
    1.7961   -5.7066   22.8235 C   0  0  0  0  0  0  0  0  0  0  0  0
    0.9612   -6.8368   22.6202 C   0  0  0  0  0  0  0  0  0  0  0  0
    0.5630   -7.1483   21.3197 C   0  0  0  0  0  0  0  0  0  0  0  0
   -0.5195  -10.5228   21.9657 N   0  0  0  0  0  0  0  0  0  0  0  0
   -0.1361  -14.3639   22.2934 H   0  0  0  0  0  0  0  0  0  0  0  0
   -3.2735  -14.9363   23.9039 H   0  0  0  0  0  0  0  0  0  0  0  0
   -3.2102  -16.0191   23.5783 H   0  0  0  0  0  0  0  0  0  0  0  0
   -4.2046  -16.8054   25.4511 H   0  0  0  0  0  0  0  0  0  0  0  0
   -2.5948  -17.4933   25.7810 H   0  0  0  0  0  0  0  0  0  0  0  0
   -4.0717  -16.2310   27.6131 H   0  0  0  0  0  0  0  0  0  0  0  0
   -2.3467  -16.5029   27.6932 H   0  0  0  0  0  0  0  0  0  0  0  0
   -2.6106  -14.1989   27.8721 H   0  0  0  0  0  0  0  0  0  0  0  0
   -1.6158  -14.6905   26.1696 H   0  0  0  0  0  0  0  0  0  0  0  0
   -2.2885  -12.9662   25.6529 H   0  0  0  0  0  0  0  0  0  0  0  0
   -2.3664  -13.0013   20.3375 H   0  0  0  0  0  0  0  0  0  0  0  0
   -3.3778  -11.0509   19.3571 H   0  0  0  0  0  0  0  0  0  0  0  0
   -2.5995   -8.8072   19.8381 H   0  0  0  0  0  0  0  0  0  0  0  0
   -0.7818   -8.2972   18.6227 H   0  0  0  0  0  0  0  0  0  0  0  0
    2.0743   -4.5241   19.6620 H   0  0  0  0  0  0  0  0  0  0  0  0
    2.8669   -4.0329   21.9880 H   0  0  0  0  0  0  0  0  0  0  0  0
    2.1112   -5.4692   23.8375 H   0  0  0  0  0  0  0  0  0  0  0  0
    0.6410   -7.4466   23.4565 H   0  0  0  0  0  0  0  0  0  0  0  0
  1  2  2  3
  2  3  1  0
  3  4  1  0
  4  5  1  0
  5  6  1  0
  6  7  1  0
  1  8  1  0
  8  9  2  0
  9 10  1  0
 10 11  2  0
 11 12  1  0
 12 13  1  0
 13 14  1  0
 14 15  2  0
 15 16  1  0
 16 17  2  0
 17 18  1  0
 18 19  2  0
 19 20  1  0
 20 21  2  0
 12 22  2  0
  7  2  1  0
 22  8  1  0
 21 13  1  0
 21 16  1  0
  1 23  1  0
  3 24  1  0
  3 25  1  0
  4 26  1  0
  4 27  1  0
  5 28  1  0
  5 29  1  0
  6 30  1  0
  7 31  1  0
  7 32  1  0
  9 33  1  0
 10 34  1  0
 11 35  1  0
 14 36  1  0
 17 37  1  0
 18 38  1  0
 19 39  1  0
 20 40  1  0
M  END
>  <Energy>  (1001) 
599.82062178375702

>  <compound_id>  (1001) 
6206

>  <target_id>  (1001) 
1

>  <reference_id>  (1001) 
82

>  <inspiration_ids>  (1001) 
[82, 103]

>  <energy_score>  (1001) 
518.189900250689

>  <distance_score>  (1001) 
15.328855741362856

>  <path>  (1001) 
/opt/xchem-fragalysis-2/maxwin/BulkDock/SCRATCH/511018/C6206-P82/C6206-P82.minimised.mol

>  <scratch_subdir>  (1001) 
/opt/xchem-fragalysis-2/maxwin/BulkDock/SCRATCH/511018/C6206-P82

>  <fragmenstein_runtime>  (1001) 
17.590168476104736

>  <fragmenstein_outcome>  (1001) 
too moved

>  <fragmenstein_mode>  (1001) 
expansion

>  <fragmenstein_error>  (1001) 


$$$$
C6206-P103
     RDKit          3D

 40 43  0  0  0  0  0  0  0  0999 V2000
   -7.0878  -16.6904   27.9796 C   0  0  0  0  0  0  0  0  0  0  0  0
   -7.1917  -18.0150   27.5375 C   0  0  0  0  0  0  0  0  0  0  0  0
   -8.4365  -18.7758   28.0833 C   0  0  0  0  0  0  0  0  0  0  0  0
   -9.3102  -20.5509   27.6253 C   0  0  0  0  0  0  0  0  0  0  0  0
   -7.6315  -21.3074   27.1984 C   0  0  0  0  0  0  0  0  0  0  0  0
   -6.3746  -20.4694   27.1988 N   0  0  0  0  0  0  0  0  0  0  0  0
   -6.2239  -19.0151   26.9178 C   0  0  0  0  0  0  0  0  0  0  0  0
   -5.9619  -15.6821   28.3871 C   0  0  0  0  0  0  0  0  0  0  0  0
   -4.9976  -16.2607   29.1892 C   0  0  0  0  0  0  0  0  0  0  0  0
   -4.0897  -15.4261   29.8375 C   0  0  0  0  0  0  0  0  0  0  0  0
   -4.0830  -14.0286   29.6481 C   0  0  0  0  0  0  0  0  0  0  0  0
   -4.9823  -13.3896   28.7845 C   0  0  0  0  0  0  0  0  0  0  0  0
   -4.5112  -11.8763   28.4194 N   0  0  0  0  0  0  0  0  0  0  0  0
   -3.7043  -11.1449   29.3288 C   0  0  0  0  0  0  0  0  0  0  0  0
   -3.0640  -10.1046   28.8415 N   0  0  0  0  0  0  0  0  0  0  0  0
   -3.5462   -9.9590   27.5847 C   0  0  0  0  0  0  0  0  0  0  0  0
   -3.1736   -8.9506   26.6581 C   0  0  0  0  0  0  0  0  0  0  0  0
   -3.7375   -8.9377   25.3896 C   0  0  0  0  0  0  0  0  0  0  0  0
   -4.7328   -9.8623   25.1048 C   0  0  0  0  0  0  0  0  0  0  0  0
   -5.1702  -10.8295   26.0539 C   0  0  0  0  0  0  0  0  0  0  0  0
   -4.5135  -10.9612   27.2908 C   0  0  0  0  0  0  0  0  0  0  0  0
   -6.0249  -14.2341   28.2413 N   0  0  0  0  0  0  0  0  0  0  0  0
   -7.9999  -16.2416   28.3841 H   0  0  0  0  0  0  0  0  0  0  0  0
   -7.8248  -18.9502   28.9426 H   0  0  0  0  0  0  0  0  0  0  0  0
   -9.2176  -17.9964   28.0215 H   0  0  0  0  0  0  0  0  0  0  0  0
  -10.0535  -21.1800   28.2952 H   0  0  0  0  0  0  0  0  0  0  0  0
  -10.0641  -20.5917   26.8650 H   0  0  0  0  0  0  0  0  0  0  0  0
   -7.4979  -21.9896   26.3591 H   0  0  0  0  0  0  0  0  0  0  0  0
   -7.5731  -22.1695   27.8592 H   0  0  0  0  0  0  0  0  0  0  0  0
   -5.6375  -20.9746   26.6999 H   0  0  0  0  0  0  0  0  0  0  0  0
   -5.2105  -18.7392   27.2312 H   0  0  0  0  0  0  0  0  0  0  0  0
   -6.2423  -18.8828   25.8305 H   0  0  0  0  0  0  0  0  0  0  0  0
   -4.9810  -17.3289   29.3875 H   0  0  0  0  0  0  0  0  0  0  0  0
   -3.3490  -15.8695   30.5025 H   0  0  0  0  0  0  0  0  0  0  0  0
   -3.2802  -13.5047   30.1533 H   0  0  0  0  0  0  0  0  0  0  0  0
   -3.6180  -11.4615   30.3592 H   0  0  0  0  0  0  0  0  0  0  0  0
   -2.4369   -8.2085   26.9502 H   0  0  0  0  0  0  0  0  0  0  0  0
   -3.4532   -8.1847   24.6610 H   0  0  0  0  0  0  0  0  0  0  0  0
   -5.2330   -9.8298   24.1360 H   0  0  0  0  0  0  0  0  0  0  0  0
   -6.0264  -11.4548   25.8135 H   0  0  0  0  0  0  0  0  0  0  0  0
  1  2  2  3
  2  3  1  0
  3  4  1  0
  4  5  1  0
  5  6  1  0
  6  7  1  0
  1  8  1  0
  8  9  2  0
  9 10  1  0
 10 11  2  0
 11 12  1  0
 12 13  1  0
 13 14  1  0
 14 15  2  0
 15 16  1  0
 16 17  2  0
 17 18  1  0
 18 19  2  0
 19 20  1  0
 20 21  2  0
 12 22  2  0
  7  2  1  0
 22  8  1  0
 21 13  1  0
 21 16  1  0
  1 23  1  0
  3 24  1  0
  3 25  1  0
  4 26  1  0
  4 27  1  0
  5 28  1  0
  5 29  1  0
  6 30  1  0
  7 31  1  0
  7 32  1  0
  9 33  1  0
 10 34  1  0
 11 35  1  0
 14 36  1  0
 17 37  1  0
 18 38  1  0
 19 39  1  0
 20 40  1  0
M  END
>  <Energy>  (1002) 
276.04135491285263

>  <compound_id>  (1002) 
6206

>  <target_id>  (1002) 
1

>  <reference_id>  (1002) 
103

>  <inspiration_ids>  (1002) 
[82, 103]

>  <energy_score>  (1002) 
194.41063337979585

>  <distance_score>  (1002) 
16.965718624106618

>  <path>  (1002) 
/opt/xchem-fragalysis-2/maxwin/BulkDock/SCRATCH/511018/C6206-P103/C6206-P103.minimised.mol

>  <scratch_subdir>  (1002) 
/opt/xchem-fragalysis-2/maxwin/BulkDock/SCRATCH/511018/C6206-P103

>  <fragmenstein_runtime>  (1002) 
17.985897541046143

>  <fragmenstein_outcome>  (1002) 
too moved

>  <fragmenstein_mode>  (1002) 
expansion

>  <fragmenstein_error>  (1002) 


$$$$
C6211-P82
     RDKit          3D

 39 42  0  0  0  0  0  0  0  0999 V2000
   -1.2358  -10.7343   19.2234 O   0  0  0  0  0  0  0  0  0  0  0  0
   -1.7638   -9.6732   19.4878 C   0  0  0  0  0  0  0  0  0  0  0  0
   -2.3411   -8.9011   18.5485 O   0  0  0  0  0  0  0  0  0  0  0  0
   -1.9639   -9.0996   20.8180 C   0  0  0  0  0  0  0  0  0  0  0  0
   -3.2171   -9.4567   21.3888 C   0  0  0  0  0  0  0  0  0  0  0  0
   -3.5899   -8.9556   22.6199 C   0  0  0  0  0  0  0  0  0  0  0  0
   -2.6685   -8.1430   23.2378 C   0  0  0  0  0  0  0  0  0  0  0  0
   -1.4336   -7.8223   22.7229 N   0  0  0  0  0  0  0  0  0  0  0  0
   -1.0460   -8.2593   21.4858 C   0  0  0  0  0  0  0  0  0  0  0  0
    0.1521   -7.7629   20.9559 N   0  0  0  0  0  0  0  0  0  0  0  0
    0.7394   -8.1844   19.6837 C   0  0  0  0  0  0  0  0  0  0  0  0
    1.9624   -7.2855   19.4591 C   0  0  0  0  0  0  0  0  0  0  0  0
    2.5125   -7.0224   20.8574 C   0  0  0  0  0  0  0  0  0  0  0  0
    3.5137   -5.9461   20.8723 N   0  0  0  0  0  0  0  0  0  0  0  0
    3.2655   -4.5939   20.8236 C   0  0  0  0  0  0  0  0  0  0  0  0
    4.3615   -3.8685   20.9094 N   0  0  0  0  0  0  0  0  0  0  0  0
    5.3856   -4.7730   20.9851 C   0  0  0  0  0  0  0  0  0  0  0  0
    6.7628   -4.5455   21.1600 C   0  0  0  0  0  0  0  0  0  0  0  0
    7.6430   -5.6300   21.1582 C   0  0  0  0  0  0  0  0  0  0  0  0
    7.1548   -6.9224   20.9767 C   0  0  0  0  0  0  0  0  0  0  0  0
    5.7791   -7.1749   20.8369 C   0  0  0  0  0  0  0  0  0  0  0  0
    4.9026   -6.0791   20.8761 C   0  0  0  0  0  0  0  0  0  0  0  0
    1.1535   -6.9210   21.6893 C   0  0  0  0  0  0  0  0  0  0  0  0
   -2.1934   -9.3836   17.7087 H   0  0  0  0  0  0  0  0  0  0  0  0
   -3.9024  -10.1000   20.8400 H   0  0  0  0  0  0  0  0  0  0  0  0
   -4.5548   -9.1813   23.0555 H   0  0  0  0  0  0  0  0  0  0  0  0
   -2.8805   -7.6899   24.2033 H   0  0  0  0  0  0  0  0  0  0  0  0
    1.0443   -9.2301   19.7336 H   0  0  0  0  0  0  0  0  0  0  0  0
    0.0603   -8.0369   18.8408 H   0  0  0  0  0  0  0  0  0  0  0  0
    1.6470   -6.3471   18.9850 H   0  0  0  0  0  0  0  0  0  0  0  0
    2.6972   -7.7578   18.7990 H   0  0  0  0  0  0  0  0  0  0  0  0
    3.0288   -7.9244   21.2118 H   0  0  0  0  0  0  0  0  0  0  0  0
    2.2628   -4.1937   20.7410 H   0  0  0  0  0  0  0  0  0  0  0  0
    7.1225   -3.5354   21.3181 H   0  0  0  0  0  0  0  0  0  0  0  0
    8.7083   -5.4627   21.3085 H   0  0  0  0  0  0  0  0  0  0  0  0
    7.8471   -7.7630   20.9860 H   0  0  0  0  0  0  0  0  0  0  0  0
    5.4102   -8.1923   20.7430 H   0  0  0  0  0  0  0  0  0  0  0  0
    0.7917   -5.8884   21.7265 H   0  0  0  0  0  0  0  0  0  0  0  0
    1.3140   -7.2776   22.7113 H   0  0  0  0  0  0  0  0  0  0  0  0
  1  2  2  0
  2  3  1  0
  2  4  1  0
  4  5  2  0
  5  6  1  0
  6  7  2  0
  7  8  1  0
  8  9  2  0
  9 10  1  0
 10 11  1  0
 11 12  1  0
 12 13  1  0
 13 14  1  0
 14 15  1  0
 15 16  2  0
 16 17  1  0
 17 18  2  0
 18 19  1  0
 19 20  2  0
 20 21  1  0
 21 22  2  0
 13 23  1  0
  9  4  1  0
 23 10  1  0
 22 14  1  0
 22 17  1  0
  3 24  1  0
  5 25  1  0
  6 26  1  0
  7 27  1  0
 11 28  1  0
 11 29  1  0
 12 30  1  0
 12 31  1  0
 13 32  1  0
 15 33  1  0
 18 34  1  0
 19 35  1  0
 20 36  1  0
 21 37  1  0
 23 38  1  0
 23 39  1  0
M  END
>  <Energy>  (1003) 
36.303300532047146

>  <compound_id>  (1003) 
6211

>  <target_id>  (1003) 
1

>  <reference_id>  (1003) 
82

>  <inspiration_ids>  (1003) 
[82, 103]

>  <energy_score>  (1003) 
-35.9829157307305

>  <distance_score>  (1003) 
16.35913010702304

>  <path>  (1003) 
/opt/xchem-fragalysis-2/maxwin/BulkDock/SCRATCH/511018/C6211-P82/C6211-P82.minimised.mol

>  <scratch_subdir>  (1003) 
/opt/xchem-fragalysis-2/maxwin/BulkDock/SCRATCH/511018/C6211-P82

>  <fragmenstein_runtime>  (1003) 
28.381776809692383

>  <fragmenstein_outcome>  (1003) 
too moved

>  <fragmenstein_mode>  (1003) 
expansion

>  <fragmenstein_error>  (1003) 


$$$$
C6211-P103
     RDKit          3D

 39 42  0  0  0  0  0  0  0  0999 V2000
   -2.3556  -19.2658   26.3238 O   0  0  0  0  0  0  0  0  0  0  0  0
   -1.8824  -18.2011   25.9789 C   0  0  0  0  0  0  0  0  0  0  0  0
   -0.6014  -18.1674   26.2578 O   0  0  0  0  0  0  0  0  0  0  0  0
   -2.6364  -16.8333   25.3518 C   0  0  0  0  0  0  0  0  0  0  0  0
   -2.9286  -16.9912   26.8587 C   0  0  0  0  0  0  0  0  0  0  0  0
   -2.7395  -16.0542   27.7077 C   0  0  0  0  0  0  0  0  0  0  0  0
   -2.2248  -15.0215   27.1089 C   0  0  0  0  0  0  0  0  0  0  0  0
   -2.1571  -14.5248   25.5852 N   0  0  0  0  0  0  0  0  0  0  0  0
   -2.2001  -15.3782   24.5210 C   0  0  0  0  0  0  0  0  0  0  0  0
   -1.6016  -14.8816   22.8673 N   0  0  0  0  0  0  0  0  0  0  0  0
   -2.1899  -14.9882   20.9449 C   0  0  0  0  0  0  0  0  0  0  0  0
   -2.4280  -13.6511   20.1251 C   0  0  0  0  0  0  0  0  0  0  0  0
   -1.4616  -12.7097   20.8901 C   0  0  0  0  0  0  0  0  0  0  0  0
   -1.0826  -11.2156   20.1241 N   0  0  0  0  0  0  0  0  0  0  0  0
   -0.7898  -10.0643   20.8804 C   0  0  0  0  0  0  0  0  0  0  0  0
   -0.3707   -9.0324   20.1910 N   0  0  0  0  0  0  0  0  0  0  0  0
   -0.2601   -9.4933   18.9214 C   0  0  0  0  0  0  0  0  0  0  0  0
    0.3580   -8.8346   17.8361 C   0  0  0  0  0  0  0  0  0  0  0  0
    0.4578   -9.4900   16.6151 C   0  0  0  0  0  0  0  0  0  0  0  0
   -0.0991  -10.7601   16.4754 C   0  0  0  0  0  0  0  0  0  0  0  0
   -0.7543  -11.4270   17.5405 C   0  0  0  0  0  0  0  0  0  0  0  0
   -0.8034  -10.8000   18.7991 C   0  0  0  0  0  0  0  0  0  0  0  0
   -0.3888  -13.9613   22.3066 C   0  0  0  0  0  0  0  0  0  0  0  0
   -0.4684  -19.1122   26.1034 H   0  0  0  0  0  0  0  0  0  0  0  0
   -3.3183  -17.8371   27.4007 H   0  0  0  0  0  0  0  0  0  0  0  0
   -3.3870  -15.9669   28.5698 H   0  0  0  0  0  0  0  0  0  0  0  0
   -1.9506  -14.4611   27.9809 H   0  0  0  0  0  0  0  0  0  0  0  0
   -1.5299  -15.7393   20.4178 H   0  0  0  0  0  0  0  0  0  0  0  0
   -3.0670  -15.6602   20.6506 H   0  0  0  0  0  0  0  0  0  0  0  0
   -2.3047  -13.8783   19.0530 H   0  0  0  0  0  0  0  0  0  0  0  0
   -3.3996  -13.1679   20.0307 H   0  0  0  0  0  0  0  0  0  0  0  0
   -2.1793  -12.0281   21.3459 H   0  0  0  0  0  0  0  0  0  0  0  0
   -0.8494  -10.0592   21.9499 H   0  0  0  0  0  0  0  0  0  0  0  0
    0.7801   -7.8472   17.9843 H   0  0  0  0  0  0  0  0  0  0  0  0
    0.9544   -9.0108   15.7769 H   0  0  0  0  0  0  0  0  0  0  0  0
   -0.0239  -11.2646   15.5130 H   0  0  0  0  0  0  0  0  0  0  0  0
   -1.1316  -12.4326   17.3916 H   0  0  0  0  0  0  0  0  0  0  0  0
    0.2699  -14.7820   22.0383 H   0  0  0  0  0  0  0  0  0  0  0  0
   -0.1988  -13.6183   23.2701 H   0  0  0  0  0  0  0  0  0  0  0  0
  1  2  2  0
  2  3  1  0
  2  4  1  0
  4  5  2  0
  5  6  1  0
  6  7  2  0
  7  8  1  0
  8  9  2  0
  9 10  1  0
 10 11  1  0
 11 12  1  0
 12 13  1  0
 13 14  1  0
 14 15  1  0
 15 16  2  0
 16 17  1  0
 17 18  2  0
 18 19  1  0
 19 20  2  0
 20 21  1  0
 21 22  2  0
 13 23  1  0
  9  4  1  0
 23 10  1  0
 22 14  1  0
 22 17  1  0
  3 24  1  0
  5 25  1  0
  6 26  1  0
  7 27  1  0
 11 28  1  0
 11 29  1  0
 12 30  1  0
 12 31  1  0
 13 32  1  0
 15 33  1  0
 18 34  1  0
 19 35  1  0
 20 36  1  0
 21 37  1  0
 23 38  1  0
 23 39  1  0
M  END
>  <Energy>  (1004) 
699.35145785115731

>  <compound_id>  (1004) 
6211

>  <target_id>  (1004) 
1

>  <reference_id>  (1004) 
103

>  <inspiration_ids>  (1004) 
[82, 103]

>  <energy_score>  (1004) 
627.0652415883741

>  <distance_score>  (1004) 
15.513850788107746

>  <path>  (1004) 
/opt/xchem-fragalysis-2/maxwin/BulkDock/SCRATCH/511018/C6211-P103/C6211-P103.minimised.mol

>  <scratch_subdir>  (1004) 
/opt/xchem-fragalysis-2/maxwin/BulkDock/SCRATCH/511018/C6211-P103

>  <fragmenstein_runtime>  (1004) 
21.609269618988037

>  <fragmenstein_outcome>  (1004) 
too moved

>  <fragmenstein_mode>  (1004) 
expansion

>  <fragmenstein_error>  (1004) 


$$$$
C6213-P82
     RDKit          3D

 45 48  0  0  0  0  0  0  0  0999 V2000
    4.1358  -16.9869   17.4177 O   0  0  0  0  0  0  0  0  0  0  0  0
    3.2980  -16.1765   17.5573 C   0  0  0  0  0  0  0  0  0  0  0  0
    1.7774  -16.3825   17.8532 N   0  0  0  0  0  0  0  0  0  0  0  0
    0.9610  -17.6351   17.9381 C   0  0  0  0  0  0  0  0  0  0  0  0
   -0.0385  -18.0487   19.0676 C   0  0  0  0  0  0  0  0  0  0  0  0
    0.2833  -19.0655   19.9829 C   0  0  0  0  0  0  0  0  0  0  0  0
   -0.7094  -19.6572   20.7771 C   0  0  0  0  0  0  0  0  0  0  0  0
   -2.0163  -19.3338   20.7299 N   0  0  0  0  0  0  0  0  0  0  0  0
   -2.3714  -18.3581   19.8593 C   0  0  0  0  0  0  0  0  0  0  0  0
   -3.7170  -18.0639   19.7083 N   0  0  0  0  0  0  0  0  0  0  0  0
   -4.1571  -16.6937   19.4561 C   0  0  0  0  0  0  0  0  0  0  0  0
   -5.4732  -16.5688   20.2253 C   0  0  0  0  0  0  0  0  0  0  0  0
   -5.9731  -18.0019   20.3084 C   0  0  0  0  0  0  0  0  0  0  0  0
   -4.6824  -18.7829   20.5320 C   0  0  0  0  0  0  0  0  0  0  0  0
   -1.4052  -17.7058   19.0425 C   0  0  0  0  0  0  0  0  0  0  0  0
    3.3881  -14.6497   17.4750 N   0  0  0  0  0  0  0  0  0  0  0  0
    4.4963  -13.8102   17.3068 N   0  0  0  0  0  0  0  0  0  0  0  0
    5.7224  -14.0291   17.8904 C   0  0  0  0  0  0  0  0  0  0  0  0
    6.6069  -13.0901   17.6168 N   0  0  0  0  0  0  0  0  0  0  0  0
    5.9362  -12.2017   16.8202 C   0  0  0  0  0  0  0  0  0  0  0  0
    6.4365  -11.0273   16.2243 C   0  0  0  0  0  0  0  0  0  0  0  0
    5.5848  -10.2367   15.4552 C   0  0  0  0  0  0  0  0  0  0  0  0
    4.2572  -10.6215   15.2811 C   0  0  0  0  0  0  0  0  0  0  0  0
    3.7423  -11.8098   15.8437 C   0  0  0  0  0  0  0  0  0  0  0  0
    4.6028  -12.6048   16.6151 C   0  0  0  0  0  0  0  0  0  0  0  0
    1.3141  -15.4966   17.8340 H   0  0  0  0  0  0  0  0  0  0  0  0
    1.6888  -18.4511   17.8419 H   0  0  0  0  0  0  0  0  0  0  0  0
    0.3916  -17.6538   16.9999 H   0  0  0  0  0  0  0  0  0  0  0  0
    1.2995  -19.4469   20.0428 H   0  0  0  0  0  0  0  0  0  0  0  0
   -0.4559  -20.4550   21.4690 H   0  0  0  0  0  0  0  0  0  0  0  0
   -4.3275  -16.5595   18.3821 H   0  0  0  0  0  0  0  0  0  0  0  0
   -3.4500  -15.9297   19.7976 H   0  0  0  0  0  0  0  0  0  0  0  0
   -6.1825  -15.8969   19.7343 H   0  0  0  0  0  0  0  0  0  0  0  0
   -5.2803  -16.1836   21.2340 H   0  0  0  0  0  0  0  0  0  0  0  0
   -6.7004  -18.1531   21.1107 H   0  0  0  0  0  0  0  0  0  0  0  0
   -6.4364  -18.2948   19.3586 H   0  0  0  0  0  0  0  0  0  0  0  0
   -4.7906  -19.8274   20.2219 H   0  0  0  0  0  0  0  0  0  0  0  0
   -4.4135  -18.7464   21.5945 H   0  0  0  0  0  0  0  0  0  0  0  0
   -1.7471  -16.9893   18.3011 H   0  0  0  0  0  0  0  0  0  0  0  0
    2.5097  -14.2522   17.7255 H   0  0  0  0  0  0  0  0  0  0  0  0
    5.9095  -14.9031   18.4977 H   0  0  0  0  0  0  0  0  0  0  0  0
    7.4796  -10.7666   16.3637 H   0  0  0  0  0  0  0  0  0  0  0  0
    5.9597   -9.3317   14.9866 H   0  0  0  0  0  0  0  0  0  0  0  0
    3.5996   -9.9964   14.6796 H   0  0  0  0  0  0  0  0  0  0  0  0
    2.7121  -12.0982   15.6704 H   0  0  0  0  0  0  0  0  0  0  0  0
  1  2  2  0
  2  3  1  0
  3  4  1  0
  4  5  1  0
  5  6  2  0
  6  7  1  0
  7  8  2  0
  8  9  1  0
  9 10  1  0
 10 11  1  0
 11 12  1  0
 12 13  1  0
 13 14  1  0
  9 15  2  0
  2 16  1  0
 16 17  1  0
 17 18  1  0
 18 19  2  0
 19 20  1  0
 20 21  2  0
 21 22  1  0
 22 23  2  0
 23 24  1  0
 24 25  2  0
 15  5  1  0
 25 17  1  0
 14 10  1  0
 25 20  1  0
  3 26  1  0
  4 27  1  0
  4 28  1  0
  6 29  1  0
  7 30  1  0
 11 31  1  0
 11 32  1  0
 12 33  1  0
 12 34  1  0
 13 35  1  0
 13 36  1  0
 14 37  1  0
 14 38  1  0
 15 39  1  0
 16 40  1  0
 18 41  1  0
 21 42  1  0
 22 43  1  0
 23 44  1  0
 24 45  1  0
M  END
>  <Energy>  (1005) 
-41.436993208261114

>  <compound_id>  (1005) 
6213

>  <target_id>  (1005) 
1

>  <reference_id>  (1005) 
82

>  <inspiration_ids>  (1005) 
[82, 103]

>  <energy_score>  (1005) 
10.215033223995135

>  <distance_score>  (1005) 
15.845034605702091

>  <path>  (1005) 
/opt/xchem-fragalysis-2/maxwin/BulkDock/SCRATCH/511018/C6213-P82/C6213-P82.minimised.mol

>  <scratch_subdir>  (1005) 
/opt/xchem-fragalysis-2/maxwin/BulkDock/SCRATCH/511018/C6213-P82

>  <fragmenstein_runtime>  (1005) 
39.07414221763611

>  <fragmenstein_outcome>  (1005) 
too moved

>  <fragmenstein_mode>  (1005) 
expansion

>  <fragmenstein_error>  (1005) 


$$$$
C6213-P103
     RDKit          3D

 45 48  0  0  0  0  0  0  0  0999 V2000
   -4.2172  -19.7417   23.0217 O   0  0  0  0  0  0  0  0  0  0  0  0
   -5.0066  -18.8747   22.8881 C   0  0  0  0  0  0  0  0  0  0  0  0
   -6.1769  -18.4591   23.7932 N   0  0  0  0  0  0  0  0  0  0  0  0
   -6.6136  -18.9794   25.2057 C   0  0  0  0  0  0  0  0  0  0  0  0
   -6.6363  -20.3946   25.8705 C   0  0  0  0  0  0  0  0  0  0  0  0
   -5.5808  -21.2538   25.7431 C   0  0  0  0  0  0  0  0  0  0  0  0
   -5.6176  -22.4349   26.4763 C   0  0  0  0  0  0  0  0  0  0  0  0
   -6.6432  -22.9316   27.2641 N   0  0  0  0  0  0  0  0  0  0  0  0
   -7.8065  -22.3177   27.4030 C   0  0  0  0  0  0  0  0  0  0  0  0
   -9.1220  -22.9808   28.0454 N   0  0  0  0  0  0  0  0  0  0  0  0
  -10.5942  -22.6147   27.8673 C   0  0  0  0  0  0  0  0  0  0  0  0
  -11.0514  -23.8219   27.0444 C   0  0  0  0  0  0  0  0  0  0  0  0
  -10.7071  -24.9925   27.9179 C   0  0  0  0  0  0  0  0  0  0  0  0
   -9.4672  -24.4849   28.6591 C   0  0  0  0  0  0  0  0  0  0  0  0
   -7.6614  -20.8775   26.8284 C   0  0  0  0  0  0  0  0  0  0  0  0
   -5.0691  -17.7337   21.7456 N   0  0  0  0  0  0  0  0  0  0  0  0
   -4.1382  -17.4200   20.6652 N   0  0  0  0  0  0  0  0  0  0  0  0
   -3.0875  -18.2325   20.2848 C   0  0  0  0  0  0  0  0  0  0  0  0
   -2.2416  -17.6576   19.4476 N   0  0  0  0  0  0  0  0  0  0  0  0
   -2.7433  -16.4050   19.2211 C   0  0  0  0  0  0  0  0  0  0  0  0
   -2.2245  -15.4041   18.3632 C   0  0  0  0  0  0  0  0  0  0  0  0
   -2.8673  -14.1704   18.2695 C   0  0  0  0  0  0  0  0  0  0  0  0
   -4.0234  -13.9552   19.0102 C   0  0  0  0  0  0  0  0  0  0  0  0
   -4.5911  -14.9663   19.8305 C   0  0  0  0  0  0  0  0  0  0  0  0
   -3.9330  -16.2040   19.9556 C   0  0  0  0  0  0  0  0  0  0  0  0
   -6.6025  -17.6259   23.4266 H   0  0  0  0  0  0  0  0  0  0  0  0
   -6.0209  -18.3548   25.8864 H   0  0  0  0  0  0  0  0  0  0  0  0
   -7.6448  -18.6101   25.2727 H   0  0  0  0  0  0  0  0  0  0  0  0
   -4.7120  -21.0214   25.1380 H   0  0  0  0  0  0  0  0  0  0  0  0
   -4.7483  -23.0906   26.4348 H   0  0  0  0  0  0  0  0  0  0  0  0
  -11.1070  -22.6107   28.8395 H   0  0  0  0  0  0  0  0  0  0  0  0
  -10.8874  -21.6642   27.4334 H   0  0  0  0  0  0  0  0  0  0  0  0
  -12.0620  -23.7334   26.6985 H   0  0  0  0  0  0  0  0  0  0  0  0
  -10.4719  -23.9708   26.1331 H   0  0  0  0  0  0  0  0  0  0  0  0
  -10.5108  -25.8988   27.3411 H   0  0  0  0  0  0  0  0  0  0  0  0
  -11.5140  -25.2188   28.6241 H   0  0  0  0  0  0  0  0  0  0  0  0
   -8.6895  -25.2408   28.7943 H   0  0  0  0  0  0  0  0  0  0  0  0
   -9.8262  -24.3962   29.6908 H   0  0  0  0  0  0  0  0  0  0  0  0
   -8.4530  -20.1567   27.0444 H   0  0  0  0  0  0  0  0  0  0  0  0
   -5.9063  -17.1933   21.8574 H   0  0  0  0  0  0  0  0  0  0  0  0
   -2.9829  -19.2345   20.6778 H   0  0  0  0  0  0  0  0  0  0  0  0
   -1.3231  -15.6114   17.7957 H   0  0  0  0  0  0  0  0  0  0  0  0
   -2.4733  -13.3919   17.6223 H   0  0  0  0  0  0  0  0  0  0  0  0
   -4.5324  -12.9945   18.9326 H   0  0  0  0  0  0  0  0  0  0  0  0
   -5.5267  -14.7780   20.3489 H   0  0  0  0  0  0  0  0  0  0  0  0
  1  2  2  0
  2  3  1  0
  3  4  1  0
  4  5  1  0
  5  6  2  0
  6  7  1  0
  7  8  2  0
  8  9  1  0
  9 10  1  0
 10 11  1  0
 11 12  1  0
 12 13  1  0
 13 14  1  0
  9 15  2  0
  2 16  1  0
 16 17  1  0
 17 18  1  0
 18 19  2  0
 19 20  1  0
 20 21  2  0
 21 22  1  0
 22 23  2  0
 23 24  1  0
 24 25  2  0
 15  5  1  0
 25 17  1  0
 14 10  1  0
 25 20  1  0
  3 26  1  0
  4 27  1  0
  4 28  1  0
  6 29  1  0
  7 30  1  0
 11 31  1  0
 11 32  1  0
 12 33  1  0
 12 34  1  0
 13 35  1  0
 13 36  1  0
 14 37  1  0
 14 38  1  0
 15 39  1  0
 16 40  1  0
 18 41  1  0
 21 42  1  0
 22 43  1  0
 23 44  1  0
 24 45  1  0
M  END
>  <Energy>  (1006) 
82.507018044078578

>  <compound_id>  (1006) 
6213

>  <target_id>  (1006) 
1

>  <reference_id>  (1006) 
103

>  <inspiration_ids>  (1006) 
[82, 103]

>  <energy_score>  (1006) 
134.15904447633147

>  <distance_score>  (1006) 
18.152106259369223

>  <path>  (1006) 
/opt/xchem-fragalysis-2/maxwin/BulkDock/SCRATCH/511018/C6213-P103/C6213-P103.minimised.mol

>  <scratch_subdir>  (1006) 
/opt/xchem-fragalysis-2/maxwin/BulkDock/SCRATCH/511018/C6213-P103

>  <fragmenstein_runtime>  (1006) 
48.17203879356384

>  <fragmenstein_outcome>  (1006) 
too moved

>  <fragmenstein_mode>  (1006) 
expansion

>  <fragmenstein_error>  (1006) 


$$$$
C6215-P82
     RDKit          3D

 45 48  0  0  0  0  0  0  0  0999 V2000
    9.2893  -12.0197   16.6800 O   0  0  0  0  0  0  0  0  0  0  0  0
    8.9621  -11.0056   17.2133 C   0  0  0  0  0  0  0  0  0  0  0  0
    7.8106  -10.6954   18.6617 N   0  0  0  0  0  0  0  0  0  0  0  0
    6.6617  -11.9207   19.6730 C   0  0  0  0  0  0  0  0  0  0  0  0
    5.5655  -13.4349   19.3573 C   0  0  0  0  0  0  0  0  0  0  0  0
    4.2411  -13.4757   18.9454 C   0  0  0  0  0  0  0  0  0  0  0  0
    3.4233  -14.8056   18.3486 C   0  0  0  0  0  0  0  0  0  0  0  0
    3.9987  -16.0276   18.0746 C   0  0  0  0  0  0  0  0  0  0  0  0
    3.3548  -17.1044   17.5279 N   0  0  0  0  0  0  0  0  0  0  0  0
    2.1724  -16.9492   16.6966 C   0  0  0  0  0  0  0  0  0  0  0  0
    1.9650  -18.3507   16.1325 C   0  0  0  0  0  0  0  0  0  0  0  0
    3.3901  -18.8343   15.9197 C   0  0  0  0  0  0  0  0  0  0  0  0
    4.1534  -18.2548   17.1128 C   0  0  0  0  0  0  0  0  0  0  0  0
    5.2597  -16.1048   18.4720 N   0  0  0  0  0  0  0  0  0  0  0  0
    5.8917  -14.9007   19.0610 C   0  0  0  0  0  0  0  0  0  0  0  0
    9.2290   -9.7036   16.9032 N   0  0  0  0  0  0  0  0  0  0  0  0
   10.0812   -8.9385   15.5053 N   0  0  0  0  0  0  0  0  0  0  0  0
    9.1833   -8.8035   14.6807 C   0  0  0  0  0  0  0  0  0  0  0  0
    9.6526   -7.5707   15.3890 N   0  0  0  0  0  0  0  0  0  0  0  0
   11.3420   -6.8287   16.0025 C   0  0  0  0  0  0  0  0  0  0  0  0
   12.1418   -5.4937   16.4645 C   0  0  0  0  0  0  0  0  0  0  0  0
   11.9788   -4.1256   16.3318 C   0  0  0  0  0  0  0  0  0  0  0  0
   11.1511   -3.8840   15.3324 C   0  0  0  0  0  0  0  0  0  0  0  0
   10.6552   -5.1043   14.7720 C   0  0  0  0  0  0  0  0  0  0  0  0
   10.3702   -6.9724   15.0947 C   0  0  0  0  0  0  0  0  0  0  0  0
    7.7489   -9.7237   18.8772 H   0  0  0  0  0  0  0  0  0  0  0  0
    7.2755  -12.3541   20.4632 H   0  0  0  0  0  0  0  0  0  0  0  0
    5.9508  -11.2805   20.1419 H   0  0  0  0  0  0  0  0  0  0  0  0
    3.8533  -12.5230   18.6830 H   0  0  0  0  0  0  0  0  0  0  0  0
    2.3555  -14.7166   18.1726 H   0  0  0  0  0  0  0  0  0  0  0  0
    1.2974  -16.6270   17.2703 H   0  0  0  0  0  0  0  0  0  0  0  0
    2.3551  -16.2386   15.8817 H   0  0  0  0  0  0  0  0  0  0  0  0
    1.4600  -18.9861   16.8700 H   0  0  0  0  0  0  0  0  0  0  0  0
    1.3738  -18.3505   15.2128 H   0  0  0  0  0  0  0  0  0  0  0  0
    3.4666  -19.9238   15.8638 H   0  0  0  0  0  0  0  0  0  0  0  0
    3.7879  -18.4175   14.9863 H   0  0  0  0  0  0  0  0  0  0  0  0
    4.1999  -18.9807   17.9322 H   0  0  0  0  0  0  0  0  0  0  0  0
    5.1748  -18.0031   16.8049 H   0  0  0  0  0  0  0  0  0  0  0  0
    6.9187  -15.3020   19.2458 H   0  0  0  0  0  0  0  0  0  0  0  0
    8.7335   -9.1334   17.5088 H   0  0  0  0  0  0  0  0  0  0  0  0
    8.2526   -9.1939   14.2813 H   0  0  0  0  0  0  0  0  0  0  0  0
   13.0614   -5.7271   16.9903 H   0  0  0  0  0  0  0  0  0  0  0  0
   12.6204   -3.3921   16.7939 H   0  0  0  0  0  0  0  0  0  0  0  0
   11.0680   -2.9313   14.8248 H   0  0  0  0  0  0  0  0  0  0  0  0
   10.6707   -4.8578   13.6987 H   0  0  0  0  0  0  0  0  0  0  0  0
  1  2  2  0
  2  3  1  0
  3  4  1  0
  4  5  1  0
  5  6  2  0
  6  7  1  0
  7  8  2  0
  8  9  1  0
  9 10  1  0
 10 11  1  0
 11 12  1  0
 12 13  1  0
  8 14  1  0
 14 15  2  0
  2 16  1  0
 16 17  1  0
 17 18  1  0
 18 19  2  0
 19 20  1  0
 20 21  2  0
 21 22  1  0
 22 23  2  0
 23 24  1  0
 24 25  2  0
 15  5  1  0
 25 17  1  0
 13  9  1  0
 25 20  1  0
  3 26  1  0
  4 27  1  0
  4 28  1  0
  6 29  1  0
  7 30  1  0
 10 31  1  0
 10 32  1  0
 11 33  1  0
 11 34  1  0
 12 35  1  0
 12 36  1  0
 13 37  1  0
 13 38  1  0
 15 39  1  0
 16 40  1  0
 18 41  1  0
 21 42  1  0
 22 43  1  0
 23 44  1  0
 24 45  1  0
M  END
>  <Energy>  (1007) 
1102.3128729602768

>  <compound_id>  (1007) 
6215

>  <target_id>  (1007) 
1

>  <reference_id>  (1007) 
82

>  <inspiration_ids>  (1007) 
[82, 103]

>  <energy_score>  (1007) 
1150.2188178413494

>  <distance_score>  (1007) 
18.272101917921113

>  <path>  (1007) 
/opt/xchem-fragalysis-2/maxwin/BulkDock/SCRATCH/511018/C6215-P82/C6215-P82.minimised.mol

>  <scratch_subdir>  (1007) 
/opt/xchem-fragalysis-2/maxwin/BulkDock/SCRATCH/511018/C6215-P82

>  <fragmenstein_runtime>  (1007) 
52.24089956283569

>  <fragmenstein_outcome>  (1007) 
too moved

>  <fragmenstein_mode>  (1007) 
expansion

>  <fragmenstein_error>  (1007) 


$$$$
C6215-P103
     RDKit          3D

 45 48  0  0  0  0  0  0  0  0999 V2000
    7.5562  -14.0255   28.1616 O   0  0  0  0  0  0  0  0  0  0  0  0
    6.6740  -13.6158   27.5101 C   0  0  0  0  0  0  0  0  0  0  0  0
    5.1982  -14.1419   27.4216 N   0  0  0  0  0  0  0  0  0  0  0  0
    4.5510  -15.3384   28.0465 C   0  0  0  0  0  0  0  0  0  0  0  0
    3.0466  -15.7019   28.0717 C   0  0  0  0  0  0  0  0  0  0  0  0
    2.0016  -14.8574   28.4370 C   0  0  0  0  0  0  0  0  0  0  0  0
    0.6930  -15.3636   28.6550 C   0  0  0  0  0  0  0  0  0  0  0  0
    0.4069  -16.7219   28.5208 C   0  0  0  0  0  0  0  0  0  0  0  0
   -0.8447  -17.2337   28.7601 N   0  0  0  0  0  0  0  0  0  0  0  0
   -1.0820  -18.6571   28.5529 C   0  0  0  0  0  0  0  0  0  0  0  0
   -2.5797  -18.7941   28.8092 C   0  0  0  0  0  0  0  0  0  0  0  0
   -3.1312  -17.4954   28.2424 C   0  0  0  0  0  0  0  0  0  0  0  0
   -2.0695  -16.4584   28.6143 C   0  0  0  0  0  0  0  0  0  0  0  0
    1.4027  -17.5646   28.1872 N   0  0  0  0  0  0  0  0  0  0  0  0
    2.6568  -17.0516   27.9808 C   0  0  0  0  0  0  0  0  0  0  0  0
    6.6759  -12.5078   26.4562 N   0  0  0  0  0  0  0  0  0  0  0  0
    7.7325  -11.7584   25.9234 N   0  0  0  0  0  0  0  0  0  0  0  0
    8.8059  -12.3538   25.3042 C   0  0  0  0  0  0  0  0  0  0  0  0
    9.6969  -11.4903   24.8651 N   0  0  0  0  0  0  0  0  0  0  0  0
    9.2103  -10.2655   25.2275 C   0  0  0  0  0  0  0  0  0  0  0  0
    9.8246   -9.0098   25.0434 C   0  0  0  0  0  0  0  0  0  0  0  0
    9.1388   -7.8580   25.4257 C   0  0  0  0  0  0  0  0  0  0  0  0
    7.8667   -7.9664   25.9830 C   0  0  0  0  0  0  0  0  0  0  0  0
    7.2636   -9.2182   26.2316 C   0  0  0  0  0  0  0  0  0  0  0  0
    7.9479  -10.3811   25.8435 C   0  0  0  0  0  0  0  0  0  0  0  0
    4.7036  -13.6287   26.7093 H   0  0  0  0  0  0  0  0  0  0  0  0
    4.8945  -15.3359   29.0887 H   0  0  0  0  0  0  0  0  0  0  0  0
    5.0780  -16.1755   27.5705 H   0  0  0  0  0  0  0  0  0  0  0  0
    2.1872  -13.8005   28.6059 H   0  0  0  0  0  0  0  0  0  0  0  0
   -0.0816  -14.6691   28.9625 H   0  0  0  0  0  0  0  0  0  0  0  0
   -0.5063  -19.2812   29.2445 H   0  0  0  0  0  0  0  0  0  0  0  0
   -0.8503  -18.9477   27.5206 H   0  0  0  0  0  0  0  0  0  0  0  0
   -2.7774  -18.8465   29.8867 H   0  0  0  0  0  0  0  0  0  0  0  0
   -3.0081  -19.6816   28.3354 H   0  0  0  0  0  0  0  0  0  0  0  0
   -4.1188  -17.2430   28.6385 H   0  0  0  0  0  0  0  0  0  0  0  0
   -3.2115  -17.5710   27.1511 H   0  0  0  0  0  0  0  0  0  0  0  0
   -2.0069  -15.6930   27.8327 H   0  0  0  0  0  0  0  0  0  0  0  0
   -2.3170  -15.9767   29.5666 H   0  0  0  0  0  0  0  0  0  0  0  0
    3.3953  -17.8208   27.7581 H   0  0  0  0  0  0  0  0  0  0  0  0
    5.7729  -12.4587   26.0243 H   0  0  0  0  0  0  0  0  0  0  0  0
    8.8963  -13.4292   25.2230 H   0  0  0  0  0  0  0  0  0  0  0  0
   10.8081   -8.9534   24.5893 H   0  0  0  0  0  0  0  0  0  0  0  0
    9.5864   -6.8798   25.2696 H   0  0  0  0  0  0  0  0  0  0  0  0
    7.3326   -7.0594   26.2623 H   0  0  0  0  0  0  0  0  0  0  0  0
    6.3043   -9.2633   26.7317 H   0  0  0  0  0  0  0  0  0  0  0  0
  1  2  2  0
  2  3  1  0
  3  4  1  0
  4  5  1  0
  5  6  2  0
  6  7  1  0
  7  8  2  0
  8  9  1  0
  9 10  1  0
 10 11  1  0
 11 12  1  0
 12 13  1  0
  8 14  1  0
 14 15  2  0
  2 16  1  0
 16 17  1  0
 17 18  1  0
 18 19  2  0
 19 20  1  0
 20 21  2  0
 21 22  1  0
 22 23  2  0
 23 24  1  0
 24 25  2  0
 15  5  1  0
 25 17  1  0
 13  9  1  0
 25 20  1  0
  3 26  1  0
  4 27  1  0
  4 28  1  0
  6 29  1  0
  7 30  1  0
 10 31  1  0
 10 32  1  0
 11 33  1  0
 11 34  1  0
 12 35  1  0
 12 36  1  0
 13 37  1  0
 13 38  1  0
 15 39  1  0
 16 40  1  0
 18 41  1  0
 21 42  1  0
 22 43  1  0
 23 44  1  0
 24 45  1  0
M  END
>  <Energy>  (1008) 
-38.725927973257605

>  <compound_id>  (1008) 
6215

>  <target_id>  (1008) 
1

>  <reference_id>  (1008) 
103

>  <inspiration_ids>  (1008) 
[82, 103]

>  <energy_score>  (1008) 
9.18001690782387

>  <distance_score>  (1008) 
16.30909837042858

>  <path>  (1008) 
/opt/xchem-fragalysis-2/maxwin/BulkDock/SCRATCH/511018/C6215-P103/C6215-P103.minimised.mol

>  <scratch_subdir>  (1008) 
/opt/xchem-fragalysis-2/maxwin/BulkDock/SCRATCH/511018/C6215-P103

>  <fragmenstein_runtime>  (1008) 
56.020514488220215

>  <fragmenstein_outcome>  (1008) 
too moved

>  <fragmenstein_mode>  (1008) 
expansion

>  <fragmenstein_error>  (1008) 


$$$$
C6216-P82
     RDKit          3D

 37 40  0  0  0  0  0  0  0  0999 V2000
   -8.3069  -16.7982   21.9159 N   0  0  0  0  0  0  0  0  0  0  0  0
   -7.8190  -15.9099   21.3424 C   0  0  0  0  0  0  0  0  0  0  0  0
   -7.1485  -14.7940   20.6961 C   0  0  0  0  0  0  0  0  0  0  0  0
   -7.3305  -13.4722   21.0948 C   0  0  0  0  0  0  0  0  0  0  0  0
   -6.4874  -12.4208   20.5799 C   0  0  0  0  0  0  0  0  0  0  0  0
   -5.3956  -12.6449   19.6977 C   0  0  0  0  0  0  0  0  0  0  0  0
   -4.4563  -11.6254   19.3613 N   0  0  0  0  0  0  0  0  0  0  0  0
   -4.5347  -10.2724   19.9376 C   0  0  0  0  0  0  0  0  0  0  0  0
   -3.3739   -9.4535   19.3219 C   0  0  0  0  0  0  0  0  0  0  0  0
   -2.1925  -10.4270   19.1612 C   0  0  0  0  0  0  0  0  0  0  0  0
   -1.0830   -9.8496   18.3429 N   0  0  0  0  0  0  0  0  0  0  0  0
   -1.1647   -9.5886   16.9889 C   0  0  0  0  0  0  0  0  0  0  0  0
   -0.1259   -8.9415   16.5052 N   0  0  0  0  0  0  0  0  0  0  0  0
    0.7095   -8.7430   17.5661 C   0  0  0  0  0  0  0  0  0  0  0  0
    1.9633   -8.0901   17.5807 C   0  0  0  0  0  0  0  0  0  0  0  0
    2.6657   -7.9871   18.7804 C   0  0  0  0  0  0  0  0  0  0  0  0
    2.1146   -8.5228   19.9428 C   0  0  0  0  0  0  0  0  0  0  0  0
    0.8575   -9.1722   19.9474 C   0  0  0  0  0  0  0  0  0  0  0  0
    0.1530   -9.2890   18.7363 C   0  0  0  0  0  0  0  0  0  0  0  0
   -3.0680  -11.7634   18.7373 C   0  0  0  0  0  0  0  0  0  0  0  0
   -5.2869  -13.9414   19.2732 N   0  0  0  0  0  0  0  0  0  0  0  0
   -6.1595  -14.9535   19.7304 C   0  0  0  0  0  0  0  0  0  0  0  0
   -8.0796  -13.2137   21.8410 H   0  0  0  0  0  0  0  0  0  0  0  0
   -6.6541  -11.4210   20.9737 H   0  0  0  0  0  0  0  0  0  0  0  0
   -4.4059  -10.2966   21.0208 H   0  0  0  0  0  0  0  0  0  0  0  0
   -5.4901   -9.7907   19.7034 H   0  0  0  0  0  0  0  0  0  0  0  0
   -3.6878   -9.0674   18.3439 H   0  0  0  0  0  0  0  0  0  0  0  0
   -3.1168   -8.5928   19.9482 H   0  0  0  0  0  0  0  0  0  0  0  0
   -1.7556  -10.6337   20.1466 H   0  0  0  0  0  0  0  0  0  0  0  0
   -2.0261   -9.8869   16.4047 H   0  0  0  0  0  0  0  0  0  0  0  0
    2.3601   -7.6808   16.6583 H   0  0  0  0  0  0  0  0  0  0  0  0
    3.6297   -7.4899   18.8082 H   0  0  0  0  0  0  0  0  0  0  0  0
    2.6544   -8.4418   20.8855 H   0  0  0  0  0  0  0  0  0  0  0  0
    0.4597   -9.5699   20.8771 H   0  0  0  0  0  0  0  0  0  0  0  0
   -3.1696  -11.8207   17.6493 H   0  0  0  0  0  0  0  0  0  0  0  0
   -2.5786  -12.6625   19.1135 H   0  0  0  0  0  0  0  0  0  0  0  0
   -5.9259  -15.9323   19.3133 H   0  0  0  0  0  0  0  0  0  0  0  0
  1  2  3  0
  2  3  1  0
  3  4  2  0
  4  5  1  0
  5  6  2  0
  6  7  1  0
  7  8  1  0
  8  9  1  0
  9 10  1  0
 10 11  1  0
 11 12  1  0
 12 13  2  0
 13 14  1  0
 14 15  2  0
 15 16  1  0
 16 17  2  0
 17 18  1  0
 18 19  2  0
 10 20  1  0
  6 21  1  0
 21 22  2  0
 22  3  1  0
 20  7  1  0
 19 11  1  0
 19 14  1  0
  4 23  1  0
  5 24  1  0
  8 25  1  0
  8 26  1  0
  9 27  1  0
  9 28  1  0
 10 29  1  0
 12 30  1  0
 15 31  1  0
 16 32  1  0
 17 33  1  0
 18 34  1  0
 20 35  1  0
 20 36  1  0
 22 37  1  0
M  END
>  <Energy>  (1009) 
41.584368458527528

>  <compound_id>  (1009) 
6216

>  <target_id>  (1009) 
1

>  <reference_id>  (1009) 
82

>  <inspiration_ids>  (1009) 
[82, 103]

>  <energy_score>  (1009) 
5.266554507129513

>  <distance_score>  (1009) 
15.872655397451135

>  <path>  (1009) 
/opt/xchem-fragalysis-2/maxwin/BulkDock/SCRATCH/511018/C6216-P82/C6216-P82.minimised.mol

>  <scratch_subdir>  (1009) 
/opt/xchem-fragalysis-2/maxwin/BulkDock/SCRATCH/511018/C6216-P82

>  <fragmenstein_runtime>  (1009) 
21.510735511779785

>  <fragmenstein_outcome>  (1009) 
too moved

>  <fragmenstein_mode>  (1009) 
expansion

>  <fragmenstein_error>  (1009) 


$$$$
C6216-P103
     RDKit          3D

 37 40  0  0  0  0  0  0  0  0999 V2000
   -5.8137  -17.6040   34.8758 N   0  0  0  0  0  0  0  0  0  0  0  0
   -4.8892  -17.0469   34.4449 C   0  0  0  0  0  0  0  0  0  0  0  0
   -3.7845  -16.4407   33.7532 C   0  0  0  0  0  0  0  0  0  0  0  0
   -2.9595  -15.3522   34.1215 C   0  0  0  0  0  0  0  0  0  0  0  0
   -1.8794  -14.8315   33.1540 C   0  0  0  0  0  0  0  0  0  0  0  0
   -1.5902  -15.4297   31.7204 C   0  0  0  0  0  0  0  0  0  0  0  0
   -0.6133  -14.6461   30.4897 N   0  0  0  0  0  0  0  0  0  0  0  0
   -0.8180  -14.8775   28.5212 C   0  0  0  0  0  0  0  0  0  0  0  0
    0.2976  -13.4413   27.3048 C   0  0  0  0  0  0  0  0  0  0  0  0
    0.8721  -11.9021   28.9367 C   0  0  0  0  0  0  0  0  0  0  0  0
    2.0819  -11.0212   29.1761 N   0  0  0  0  0  0  0  0  0  0  0  0
    2.2899  -10.1921   28.1773 C   0  0  0  0  0  0  0  0  0  0  0  0
    3.5959  -10.1211   27.9832 N   0  0  0  0  0  0  0  0  0  0  0  0
    4.1250  -10.1743   29.1837 C   0  0  0  0  0  0  0  0  0  0  0  0
    5.4542   -9.8200   29.5405 C   0  0  0  0  0  0  0  0  0  0  0  0
    5.7139   -9.5524   30.8804 C   0  0  0  0  0  0  0  0  0  0  0  0
    4.6700   -9.6481   31.8219 C   0  0  0  0  0  0  0  0  0  0  0  0
    3.3092  -10.0429   31.4776 C   0  0  0  0  0  0  0  0  0  0  0  0
    2.9908  -10.3829   30.0755 C   0  0  0  0  0  0  0  0  0  0  0  0
    0.0979  -12.8312   30.8350 C   0  0  0  0  0  0  0  0  0  0  0  0
   -2.6903  -16.2909   31.5125 N   0  0  0  0  0  0  0  0  0  0  0  0
   -3.5671  -16.8840   32.4661 C   0  0  0  0  0  0  0  0  0  0  0  0
   -3.0896  -14.8362   35.0687 H   0  0  0  0  0  0  0  0  0  0  0  0
   -1.3786  -13.9141   33.4792 H   0  0  0  0  0  0  0  0  0  0  0  0
   -0.3761  -15.8506   28.6427 H   0  0  0  0  0  0  0  0  0  0  0  0
   -1.8958  -14.8914   28.3187 H   0  0  0  0  0  0  0  0  0  0  0  0
    1.1688  -14.1199   26.8969 H   0  0  0  0  0  0  0  0  0  0  0  0
    0.3363  -13.1524   26.2464 H   0  0  0  0  0  0  0  0  0  0  0  0
    0.1759  -11.0006   28.7677 H   0  0  0  0  0  0  0  0  0  0  0  0
    1.4861   -9.6213   27.7649 H   0  0  0  0  0  0  0  0  0  0  0  0
    6.2136   -9.7003   28.7778 H   0  0  0  0  0  0  0  0  0  0  0  0
    6.7113   -9.2677   31.2019 H   0  0  0  0  0  0  0  0  0  0  0  0
    4.8861   -9.4389   32.8695 H   0  0  0  0  0  0  0  0  0  0  0  0
    2.6177  -10.1107   32.2982 H   0  0  0  0  0  0  0  0  0  0  0  0
    0.6666  -13.0446   31.7808 H   0  0  0  0  0  0  0  0  0  0  0  0
   -0.9300  -12.5774   31.0904 H   0  0  0  0  0  0  0  0  0  0  0  0
   -4.2060  -17.6586   32.0666 H   0  0  0  0  0  0  0  0  0  0  0  0
  1  2  3  0
  2  3  1  0
  3  4  2  0
  4  5  1  0
  5  6  2  0
  6  7  1  0
  7  8  1  0
  8  9  1  0
  9 10  1  0
 10 11  1  0
 11 12  1  0
 12 13  2  0
 13 14  1  0
 14 15  2  0
 15 16  1  0
 16 17  2  0
 17 18  1  0
 18 19  2  0
 10 20  1  0
  6 21  1  0
 21 22  2  0
 22  3  1  0
 20  7  1  0
 19 11  1  0
 19 14  1  0
  4 23  1  0
  5 24  1  0
  8 25  1  0
  8 26  1  0
  9 27  1  0
  9 28  1  0
 10 29  1  0
 12 30  1  0
 15 31  1  0
 16 32  1  0
 17 33  1  0
 18 34  1  0
 20 35  1  0
 20 36  1  0
 22 37  1  0
M  END
>  <Energy>  (1010) 
798.38825319089074

>  <compound_id>  (1010) 
6216

>  <target_id>  (1010) 
1

>  <reference_id>  (1010) 
103

>  <inspiration_ids>  (1010) 
[82, 103]

>  <energy_score>  (1010) 
762.0704392394919

>  <distance_score>  (1010) 
16.592114753735842

>  <path>  (1010) 
/opt/xchem-fragalysis-2/maxwin/BulkDock/SCRATCH/511018/C6216-P103/C6216-P103.minimised.mol

>  <scratch_subdir>  (1010) 
/opt/xchem-fragalysis-2/maxwin/BulkDock/SCRATCH/511018/C6216-P103

>  <fragmenstein_runtime>  (1010) 
16.395513772964478

>  <fragmenstein_outcome>  (1010) 
too moved

>  <fragmenstein_mode>  (1010) 
expansion

>  <fragmenstein_error>  (1010) 


$$$$
C6218-P82
     RDKit          3D

 45 49  0  0  0  0  0  0  0  0999 V2000
    7.2154  -17.6325   20.4717 C   0  0  0  0  0  0  0  0  0  0  0  0
    5.8766  -18.0165   20.4696 C   0  0  0  0  0  0  0  0  0  0  0  0
    4.9202  -17.1946   19.8887 C   0  0  0  0  0  0  0  0  0  0  0  0
    3.5317  -17.6588   19.9311 N   0  0  0  0  0  0  0  0  0  0  0  0
    2.8036  -16.9246   18.8659 C   0  0  0  0  0  0  0  0  0  0  0  0
    1.7456  -17.8887   18.3513 C   0  0  0  0  0  0  0  0  0  0  0  0
    2.4348  -19.2371   18.4930 C   0  0  0  0  0  0  0  0  0  0  0  0
    3.0727  -19.1555   19.8985 C   0  0  0  0  0  0  0  0  0  0  0  0
    2.0989  -19.7428   21.0180 C   0  0  0  0  0  0  0  0  0  0  0  0
    2.5994  -20.1588   22.2668 C   0  0  0  0  0  0  0  0  0  0  0  0
    1.7494  -20.7362   23.2337 C   0  0  0  0  0  0  0  0  0  0  0  0
    0.4283  -20.9574   23.0664 N   0  0  0  0  0  0  0  0  0  0  0  0
   -0.0528  -20.6123   21.8584 C   0  0  0  0  0  0  0  0  0  0  0  0
    0.7175  -20.0217   20.8378 C   0  0  0  0  0  0  0  0  0  0  0  0
    5.3265  -15.9237   19.3690 N   0  0  0  0  0  0  0  0  0  0  0  0
    6.6652  -15.5058   19.4346 C   0  0  0  0  0  0  0  0  0  0  0  0
    7.1996  -14.1641   19.0418 N   0  0  0  0  0  0  0  0  0  0  0  0
    8.3980  -13.6248   19.5320 C   0  0  0  0  0  0  0  0  0  0  0  0
    8.7903  -12.5187   18.9446 N   0  0  0  0  0  0  0  0  0  0  0  0
    7.8171  -12.2684   18.0303 C   0  0  0  0  0  0  0  0  0  0  0  0
    7.7983  -11.2505   17.0649 C   0  0  0  0  0  0  0  0  0  0  0  0
    6.6866  -11.1231   16.2383 C   0  0  0  0  0  0  0  0  0  0  0  0
    5.6193  -12.0061   16.3777 C   0  0  0  0  0  0  0  0  0  0  0  0
    5.6408  -13.0659   17.3064 C   0  0  0  0  0  0  0  0  0  0  0  0
    6.7652  -13.1973   18.1262 C   0  0  0  0  0  0  0  0  0  0  0  0
    7.6102  -16.3971   19.9517 C   0  0  0  0  0  0  0  0  0  0  0  0
    7.9620  -18.2956   20.9041 H   0  0  0  0  0  0  0  0  0  0  0  0
    5.6113  -18.9575   20.9341 H   0  0  0  0  0  0  0  0  0  0  0  0
    3.4462  -16.6724   18.0113 H   0  0  0  0  0  0  0  0  0  0  0  0
    2.3683  -16.0021   19.2519 H   0  0  0  0  0  0  0  0  0  0  0  0
    1.4614  -17.6727   17.3172 H   0  0  0  0  0  0  0  0  0  0  0  0
    0.8443  -17.8231   18.9686 H   0  0  0  0  0  0  0  0  0  0  0  0
    3.2285  -19.3131   17.7374 H   0  0  0  0  0  0  0  0  0  0  0  0
    1.7650  -20.0866   18.3376 H   0  0  0  0  0  0  0  0  0  0  0  0
    3.9452  -19.8185   19.8917 H   0  0  0  0  0  0  0  0  0  0  0  0
    3.6503  -20.0214   22.5070 H   0  0  0  0  0  0  0  0  0  0  0  0
    2.1475  -21.0368   24.2000 H   0  0  0  0  0  0  0  0  0  0  0  0
   -1.1056  -20.8260   21.7001 H   0  0  0  0  0  0  0  0  0  0  0  0
    0.2068  -19.7811   19.9113 H   0  0  0  0  0  0  0  0  0  0  0  0
    8.9418  -14.0929   20.3410 H   0  0  0  0  0  0  0  0  0  0  0  0
    8.6587  -10.6017   16.9573 H   0  0  0  0  0  0  0  0  0  0  0  0
    6.6569  -10.3457   15.4797 H   0  0  0  0  0  0  0  0  0  0  0  0
    4.7497  -11.8919   15.7332 H   0  0  0  0  0  0  0  0  0  0  0  0
    4.8166  -13.7698   17.3699 H   0  0  0  0  0  0  0  0  0  0  0  0
    8.6730  -16.1767   19.9739 H   0  0  0  0  0  0  0  0  0  0  0  0
  1  2  2  0
  2  3  1  0
  3  4  1  0
  4  5  1  0
  5  6  1  0
  6  7  1  0
  7  8  1  0
  8  9  1  0
  9 10  2  0
 10 11  1  0
 11 12  2  0
 12 13  1  0
 13 14  2  0
  3 15  2  0
 15 16  1  0
 16 17  1  0
 17 18  1  0
 18 19  2  0
 19 20  1  0
 20 21  2  0
 21 22  1  0
 22 23  2  0
 23 24  1  0
 24 25  2  0
 16 26  2  0
 26  1  1  0
  8  4  1  0
 14  9  1  0
 25 17  1  0
 25 20  1  0
  1 27  1  0
  2 28  1  0
  5 29  1  0
  5 30  1  0
  6 31  1  0
  6 32  1  0
  7 33  1  0
  7 34  1  0
  8 35  1  0
 10 36  1  0
 11 37  1  0
 13 38  1  0
 14 39  1  0
 18 40  1  0
 21 41  1  0
 22 42  1  0
 23 43  1  0
 24 44  1  0
 26 45  1  0
M  END
>  <Energy>  (1011) 
83.453246212901576

>  <compound_id>  (1011) 
6218

>  <target_id>  (1011) 
1

>  <reference_id>  (1011) 
82

>  <inspiration_ids>  (1011) 
[82, 103]

>  <energy_score>  (1011) 
10.569672258245646

>  <distance_score>  (1011) 
15.599955264895966

>  <path>  (1011) 
/opt/xchem-fragalysis-2/maxwin/BulkDock/SCRATCH/511018/C6218-P82/C6218-P82.minimised.mol

>  <scratch_subdir>  (1011) 
/opt/xchem-fragalysis-2/maxwin/BulkDock/SCRATCH/511018/C6218-P82

>  <fragmenstein_runtime>  (1011) 
32.49408936500549

>  <fragmenstein_outcome>  (1011) 
too moved

>  <fragmenstein_mode>  (1011) 
expansion

>  <fragmenstein_error>  (1011) 


$$$$
C6218-P103
     RDKit          3D

 45 49  0  0  0  0  0  0  0  0999 V2000
    0.7621  -10.2452   29.0387 C   0  0  0  0  0  0  0  0  0  0  0  0
    0.3636  -10.7252   27.8221 C   0  0  0  0  0  0  0  0  0  0  0  0
    1.0859  -11.8472   27.2001 C   0  0  0  0  0  0  0  0  0  0  0  0
    0.2674  -13.5867   26.7820 N   0  0  0  0  0  0  0  0  0  0  0  0
   -1.0567  -13.6751   25.2858 C   0  0  0  0  0  0  0  0  0  0  0  0
   -2.3193  -14.5529   25.8780 C   0  0  0  0  0  0  0  0  0  0  0  0
   -2.1343  -15.4391   27.2539 C   0  0  0  0  0  0  0  0  0  0  0  0
   -0.9362  -14.8200   27.9404 C   0  0  0  0  0  0  0  0  0  0  0  0
   -0.7590  -16.0552   29.1998 C   0  0  0  0  0  0  0  0  0  0  0  0
   -0.2289  -17.3486   29.0027 C   0  0  0  0  0  0  0  0  0  0  0  0
   -0.6344  -18.4045   29.8330 C   0  0  0  0  0  0  0  0  0  0  0  0
   -1.5104  -18.2952   30.8534 N   0  0  0  0  0  0  0  0  0  0  0  0
   -2.0012  -17.0619   31.0705 C   0  0  0  0  0  0  0  0  0  0  0  0
   -1.6631  -15.9447   30.3019 C   0  0  0  0  0  0  0  0  0  0  0  0
    2.4006  -11.7069   28.0506 N   0  0  0  0  0  0  0  0  0  0  0  0
    3.0697  -10.7291   28.7068 C   0  0  0  0  0  0  0  0  0  0  0  0
    4.7851  -10.5065   28.6255 N   0  0  0  0  0  0  0  0  0  0  0  0
    5.3472   -9.2626   28.3270 C   0  0  0  0  0  0  0  0  0  0  0  0
    6.5608   -9.0577   28.7521 N   0  0  0  0  0  0  0  0  0  0  0  0
    7.0499  -10.0967   28.0804 C   0  0  0  0  0  0  0  0  0  0  0  0
    8.3017  -10.1554   27.4320 C   0  0  0  0  0  0  0  0  0  0  0  0
    8.5556  -11.1972   26.5608 C   0  0  0  0  0  0  0  0  0  0  0  0
    7.5947  -12.1840   26.4095 C   0  0  0  0  0  0  0  0  0  0  0  0
    6.3467  -12.1525   27.0882 C   0  0  0  0  0  0  0  0  0  0  0  0
    6.0137  -11.0865   27.9347 C   0  0  0  0  0  0  0  0  0  0  0  0
    2.0776  -10.4464   29.4914 C   0  0  0  0  0  0  0  0  0  0  0  0
    0.0292   -9.7635   29.6768 H   0  0  0  0  0  0  0  0  0  0  0  0
   -0.6411  -10.3825   27.6069 H   0  0  0  0  0  0  0  0  0  0  0  0
   -0.1630  -14.0882   24.6192 H   0  0  0  0  0  0  0  0  0  0  0  0
   -1.1483  -14.5331   24.5323 H   0  0  0  0  0  0  0  0  0  0  0  0
   -2.7207  -15.2047   25.0768 H   0  0  0  0  0  0  0  0  0  0  0  0
   -2.9263  -13.6840   26.1299 H   0  0  0  0  0  0  0  0  0  0  0  0
   -2.9262  -15.5325   28.0007 H   0  0  0  0  0  0  0  0  0  0  0  0
   -2.1959  -16.5513   27.1648 H   0  0  0  0  0  0  0  0  0  0  0  0
   -1.7730  -14.3380   28.4599 H   0  0  0  0  0  0  0  0  0  0  0  0
    0.4436  -17.5979   28.1899 H   0  0  0  0  0  0  0  0  0  0  0  0
   -0.2500  -19.4084   29.6693 H   0  0  0  0  0  0  0  0  0  0  0  0
   -2.7151  -16.9814   31.8855 H   0  0  0  0  0  0  0  0  0  0  0  0
   -2.1796  -15.0120   30.5129 H   0  0  0  0  0  0  0  0  0  0  0  0
    5.0700   -8.7755   27.4076 H   0  0  0  0  0  0  0  0  0  0  0  0
    9.0187   -9.3535   27.5715 H   0  0  0  0  0  0  0  0  0  0  0  0
    9.5017  -11.2586   26.0316 H   0  0  0  0  0  0  0  0  0  0  0  0
    7.8360  -13.0253   25.7672 H   0  0  0  0  0  0  0  0  0  0  0  0
    5.6335  -12.9354   26.9084 H   0  0  0  0  0  0  0  0  0  0  0  0
    2.2350  -10.4690   30.5128 H   0  0  0  0  0  0  0  0  0  0  0  0
  1  2  2  0
  2  3  1  0
  3  4  1  0
  4  5  1  0
  5  6  1  0
  6  7  1  0
  7  8  1  0
  8  9  1  0
  9 10  2  0
 10 11  1  0
 11 12  2  0
 12 13  1  0
 13 14  2  0
  3 15  2  0
 15 16  1  0
 16 17  1  0
 17 18  1  0
 18 19  2  0
 19 20  1  0
 20 21  2  0
 21 22  1  0
 22 23  2  0
 23 24  1  0
 24 25  2  0
 16 26  2  0
 26  1  1  0
  8  4  1  0
 14  9  1  0
 25 17  1  0
 25 20  1  0
  1 27  1  0
  2 28  1  0
  5 29  1  0
  5 30  1  0
  6 31  1  0
  6 32  1  0
  7 33  1  0
  7 34  1  0
  8 35  1  0
 10 36  1  0
 11 37  1  0
 13 38  1  0
 14 39  1  0
 18 40  1  0
 21 41  1  0
 22 42  1  0
 23 43  1  0
 24 44  1  0
 26 45  1  0
M  END
>  <Energy>  (1012) 
790.07671559501898

>  <compound_id>  (1012) 
6218

>  <target_id>  (1012) 
1

>  <reference_id>  (1012) 
103

>  <inspiration_ids>  (1012) 
[82, 103]

>  <energy_score>  (1012) 
717.1931416403559

>  <distance_score>  (1012) 
15.44900119911676

>  <path>  (1012) 
/opt/xchem-fragalysis-2/maxwin/BulkDock/SCRATCH/511018/C6218-P103/C6218-P103.minimised.mol

>  <scratch_subdir>  (1012) 
/opt/xchem-fragalysis-2/maxwin/BulkDock/SCRATCH/511018/C6218-P103

>  <fragmenstein_runtime>  (1012) 
34.93838620185852

>  <fragmenstein_outcome>  (1012) 
too moved

>  <fragmenstein_mode>  (1012) 
expansion

>  <fragmenstein_error>  (1012) 


$$$$
C6221-P82
     RDKit          3D

 49 52  0  0  0  0  0  0  0  0999 V2000
    0.2837  -15.6626   16.7040 O   0  0  0  0  0  0  0  0  0  0  0  0
    1.1792  -16.0612   17.4015 C   0  0  0  0  0  0  0  0  0  0  0  0
    2.5610  -15.5830   17.5487 N   0  0  0  0  0  0  0  0  0  0  0  0
    3.2559  -14.3949   16.9547 C   0  0  0  0  0  0  0  0  0  0  0  0
    4.8090  -14.1283   17.1017 C   0  0  0  0  0  0  0  0  0  0  0  0
    5.2226  -12.5961   17.3223 C   0  0  0  0  0  0  0  0  0  0  0  0
    6.2013  -11.9243   16.4670 N   0  0  0  0  0  0  0  0  0  0  0  0
    5.8622  -11.1660   15.3677 C   0  0  0  0  0  0  0  0  0  0  0  0
    6.9072  -10.6391   14.7738 N   0  0  0  0  0  0  0  0  0  0  0  0
    7.9736  -11.0161   15.5460 C   0  0  0  0  0  0  0  0  0  0  0  0
    9.3396  -10.7812   15.3422 C   0  0  0  0  0  0  0  0  0  0  0  0
   10.2629  -11.2085   16.2947 C   0  0  0  0  0  0  0  0  0  0  0  0
    9.8230  -11.8465   17.4530 C   0  0  0  0  0  0  0  0  0  0  0  0
    8.4623  -12.1270   17.6646 C   0  0  0  0  0  0  0  0  0  0  0  0
    7.5560  -11.7329   16.6707 C   0  0  0  0  0  0  0  0  0  0  0  0
    0.6629  -17.1974   18.3341 C   0  0  0  0  0  0  0  0  0  0  0  0
   -0.6605  -17.0756   18.8488 C   0  0  0  0  0  0  0  0  0  0  0  0
   -1.2393  -18.0425   19.6833 C   0  0  0  0  0  0  0  0  0  0  0  0
   -0.4758  -19.1322   20.0183 C   0  0  0  0  0  0  0  0  0  0  0  0
    0.7687  -19.3242   19.5222 N   0  0  0  0  0  0  0  0  0  0  0  0
    1.3187  -18.3974   18.6597 C   0  0  0  0  0  0  0  0  0  0  0  0
    2.5847  -18.6796   18.0888 N   0  0  0  0  0  0  0  0  0  0  0  0
    2.4553  -18.9580   16.6375 C   0  0  0  0  0  0  0  0  0  0  0  0
    3.4324  -20.0987   16.3703 C   0  0  0  0  0  0  0  0  0  0  0  0
    3.3693  -20.8904   17.6614 C   0  0  0  0  0  0  0  0  0  0  0  0
    3.3382  -19.7872   18.7107 C   0  0  0  0  0  0  0  0  0  0  0  0
    3.0664  -16.2118   18.1699 H   0  0  0  0  0  0  0  0  0  0  0  0
    2.7030  -13.5366   17.3434 H   0  0  0  0  0  0  0  0  0  0  0  0
    3.0168  -14.4231   15.8846 H   0  0  0  0  0  0  0  0  0  0  0  0
    5.3159  -14.5153   16.2101 H   0  0  0  0  0  0  0  0  0  0  0  0
    5.1877  -14.7044   17.9521 H   0  0  0  0  0  0  0  0  0  0  0  0
    4.3095  -12.0045   17.2132 H   0  0  0  0  0  0  0  0  0  0  0  0
    5.5840  -12.4893   18.3509 H   0  0  0  0  0  0  0  0  0  0  0  0
    4.8374  -11.0575   15.0370 H   0  0  0  0  0  0  0  0  0  0  0  0
    9.6593  -10.2871   14.4421 H   0  0  0  0  0  0  0  0  0  0  0  0
   11.3232  -11.0337   16.1255 H   0  0  0  0  0  0  0  0  0  0  0  0
   10.5538  -12.1706   18.1910 H   0  0  0  0  0  0  0  0  0  0  0  0
    8.1385  -12.6761   18.5422 H   0  0  0  0  0  0  0  0  0  0  0  0
   -1.2539  -16.2049   18.5747 H   0  0  0  0  0  0  0  0  0  0  0  0
   -2.2478  -17.9305   20.0618 H   0  0  0  0  0  0  0  0  0  0  0  0
   -0.8414  -19.9023   20.6892 H   0  0  0  0  0  0  0  0  0  0  0  0
    2.7137  -18.0789   16.0392 H   0  0  0  0  0  0  0  0  0  0  0  0
    1.4418  -19.2834   16.3662 H   0  0  0  0  0  0  0  0  0  0  0  0
    3.1559  -20.6901   15.4932 H   0  0  0  0  0  0  0  0  0  0  0  0
    4.4439  -19.7040   16.2160 H   0  0  0  0  0  0  0  0  0  0  0  0
    4.2205  -21.5648   17.7877 H   0  0  0  0  0  0  0  0  0  0  0  0
    2.4466  -21.4814   17.7011 H   0  0  0  0  0  0  0  0  0  0  0  0
    4.3591  -19.4273   18.8902 H   0  0  0  0  0  0  0  0  0  0  0  0
    2.9628  -20.1450   19.6747 H   0  0  0  0  0  0  0  0  0  0  0  0
  1  2  2  0
  2  3  1  0
  3  4  1  0
  4  5  1  0
  5  6  1  0
  6  7  1  0
  7  8  1  0
  8  9  2  0
  9 10  1  0
 10 11  2  0
 11 12  1  0
 12 13  2  0
 13 14  1  0
 14 15  2  0
  2 16  1  0
 16 17  2  0
 17 18  1  0
 18 19  2  0
 19 20  1  0
 20 21  2  0
 21 22  1  0
 22 23  1  0
 23 24  1  0
 24 25  1  0
 25 26  1  0
 15  7  1  0
 21 16  1  0
 26 22  1  0
 15 10  1  0
  3 27  1  0
  4 28  1  0
  4 29  1  0
  5 30  1  0
  5 31  1  0
  6 32  1  0
  6 33  1  0
  8 34  1  0
 11 35  1  0
 12 36  1  0
 13 37  1  0
 14 38  1  0
 17 39  1  0
 18 40  1  0
 19 41  1  0
 23 42  1  0
 23 43  1  0
 24 44  1  0
 24 45  1  0
 25 46  1  0
 25 47  1  0
 26 48  1  0
 26 49  1  0
M  END
>  <Energy>  (1013) 
49.203085656327339

>  <compound_id>  (1013) 
6221

>  <target_id>  (1013) 
1

>  <reference_id>  (1013) 
82

>  <inspiration_ids>  (1013) 
[82, 103]

>  <energy_score>  (1013) 
-18.073845218898725

>  <distance_score>  (1013) 
16.140949082025617

>  <path>  (1013) 
/opt/xchem-fragalysis-2/maxwin/BulkDock/SCRATCH/511018/C6221-P82/C6221-P82.minimised.mol

>  <scratch_subdir>  (1013) 
/opt/xchem-fragalysis-2/maxwin/BulkDock/SCRATCH/511018/C6221-P82

>  <fragmenstein_runtime>  (1013) 
49.97744393348694

>  <fragmenstein_outcome>  (1013) 
too moved

>  <fragmenstein_mode>  (1013) 
expansion

>  <fragmenstein_error>  (1013) 


$$$$
C6221-P103
     RDKit          3D

 49 52  0  0  0  0  0  0  0  0999 V2000
   -6.3217  -17.3857   27.2177 O   0  0  0  0  0  0  0  0  0  0  0  0
   -5.8578  -18.3812   26.7703 C   0  0  0  0  0  0  0  0  0  0  0  0
   -4.1684  -17.9953   25.7960 N   0  0  0  0  0  0  0  0  0  0  0  0
   -3.1447  -16.2331   25.3695 C   0  0  0  0  0  0  0  0  0  0  0  0
   -1.5054  -14.9360   24.6541 C   0  0  0  0  0  0  0  0  0  0  0  0
    0.5157  -14.1457   24.1489 C   0  0  0  0  0  0  0  0  0  0  0  0
    2.1645  -12.9153   23.8750 N   0  0  0  0  0  0  0  0  0  0  0  0
    3.6926  -12.9940   24.2971 C   0  0  0  0  0  0  0  0  0  0  0  0
    5.1913  -11.9536   23.9943 N   0  0  0  0  0  0  0  0  0  0  0  0
    4.4798  -11.3589   22.4761 C   0  0  0  0  0  0  0  0  0  0  0  0
    5.7252  -11.3630   21.2266 C   0  0  0  0  0  0  0  0  0  0  0  0
    5.8639  -12.0853   20.0825 C   0  0  0  0  0  0  0  0  0  0  0  0
    4.7803  -12.8727   20.0014 C   0  0  0  0  0  0  0  0  0  0  0  0
    3.6632  -13.0305   21.1064 C   0  0  0  0  0  0  0  0  0  0  0  0
    3.2301  -12.3824   22.4929 C   0  0  0  0  0  0  0  0  0  0  0  0
   -7.1099  -20.0067   27.2763 C   0  0  0  0  0  0  0  0  0  0  0  0
   -8.5109  -19.4325   28.2747 C   0  0  0  0  0  0  0  0  0  0  0  0
  -10.1335  -20.3655   28.9943 C   0  0  0  0  0  0  0  0  0  0  0  0
  -10.6751  -21.5413   28.7143 C   0  0  0  0  0  0  0  0  0  0  0  0
   -9.6368  -22.1042   28.1940 N   0  0  0  0  0  0  0  0  0  0  0  0
   -8.0620  -21.6399   27.5492 C   0  0  0  0  0  0  0  0  0  0  0  0
   -8.5342  -23.1846   27.3701 N   0  0  0  0  0  0  0  0  0  0  0  0
  -10.1068  -23.7605   26.5666 C   0  0  0  0  0  0  0  0  0  0  0  0
  -10.7852  -24.9991   27.1449 C   0  0  0  0  0  0  0  0  0  0  0  0
  -10.7415  -24.7153   28.5748 C   0  0  0  0  0  0  0  0  0  0  0  0
   -9.2778  -24.3373   28.6902 C   0  0  0  0  0  0  0  0  0  0  0  0
   -3.7677  -18.8824   25.5069 H   0  0  0  0  0  0  0  0  0  0  0  0
   -3.3172  -15.8007   26.3694 H   0  0  0  0  0  0  0  0  0  0  0  0
   -3.9319  -15.8224   24.7198 H   0  0  0  0  0  0  0  0  0  0  0  0
   -1.8922  -14.6698   25.6825 H   0  0  0  0  0  0  0  0  0  0  0  0
   -1.5670  -13.8763   25.0283 H   0  0  0  0  0  0  0  0  0  0  0  0
    0.7859  -13.8693   25.2252 H   0  0  0  0  0  0  0  0  0  0  0  0
    1.1352  -14.6674   23.4047 H   0  0  0  0  0  0  0  0  0  0  0  0
    3.8798  -13.8910   24.9255 H   0  0  0  0  0  0  0  0  0  0  0  0
    6.7011  -11.1657   21.7143 H   0  0  0  0  0  0  0  0  0  0  0  0
    6.6993  -12.0833   19.4085 H   0  0  0  0  0  0  0  0  0  0  0  0
    4.6712  -13.4529   19.0812 H   0  0  0  0  0  0  0  0  0  0  0  0
    2.9792  -13.8244   20.8624 H   0  0  0  0  0  0  0  0  0  0  0  0
   -8.3426  -18.3377   28.4350 H   0  0  0  0  0  0  0  0  0  0  0  0
  -10.6498  -20.1658   29.9353 H   0  0  0  0  0  0  0  0  0  0  0  0
  -11.5592  -22.0072   29.0810 H   0  0  0  0  0  0  0  0  0  0  0  0
   -9.9822  -24.0314   25.5189 H   0  0  0  0  0  0  0  0  0  0  0  0
  -10.9030  -23.0067   26.6612 H   0  0  0  0  0  0  0  0  0  0  0  0
  -10.2964  -25.9559   26.9620 H   0  0  0  0  0  0  0  0  0  0  0  0
  -11.7917  -25.1154   26.7436 H   0  0  0  0  0  0  0  0  0  0  0  0
  -10.9616  -25.6147   29.1618 H   0  0  0  0  0  0  0  0  0  0  0  0
  -11.4570  -23.9658   28.8951 H   0  0  0  0  0  0  0  0  0  0  0  0
   -8.7979  -25.3305   28.5854 H   0  0  0  0  0  0  0  0  0  0  0  0
   -9.0820  -24.2876   29.7467 H   0  0  0  0  0  0  0  0  0  0  0  0
  1  2  2  0
  2  3  1  0
  3  4  1  0
  4  5  1  0
  5  6  1  0
  6  7  1  0
  7  8  1  0
  8  9  2  0
  9 10  1  0
 10 11  2  0
 11 12  1  0
 12 13  2  0
 13 14  1  0
 14 15  2  0
  2 16  1  0
 16 17  2  0
 17 18  1  0
 18 19  2  0
 19 20  1  0
 20 21  2  0
 21 22  1  0
 22 23  1  0
 23 24  1  0
 24 25  1  0
 25 26  1  0
 15  7  1  0
 21 16  1  0
 26 22  1  0
 15 10  1  0
  3 27  1  0
  4 28  1  0
  4 29  1  0
  5 30  1  0
  5 31  1  0
  6 32  1  0
  6 33  1  0
  8 34  1  0
 11 35  1  0
 12 36  1  0
 13 37  1  0
 14 38  1  0
 17 39  1  0
 18 40  1  0
 19 41  1  0
 23 42  1  0
 23 43  1  0
 24 44  1  0
 24 45  1  0
 25 46  1  0
 25 47  1  0
 26 48  1  0
 26 49  1  0
M  END
>  <Energy>  (1014) 
2198.9016849005739

>  <compound_id>  (1014) 
6221

>  <target_id>  (1014) 
1

>  <reference_id>  (1014) 
103

>  <inspiration_ids>  (1014) 
[82, 103]

>  <energy_score>  (1014) 
2131.6247540253485

>  <distance_score>  (1014) 
13.144449760183585

>  <path>  (1014) 
/opt/xchem-fragalysis-2/maxwin/BulkDock/SCRATCH/511018/C6221-P103/C6221-P103.minimised.mol

>  <scratch_subdir>  (1014) 
/opt/xchem-fragalysis-2/maxwin/BulkDock/SCRATCH/511018/C6221-P103

>  <fragmenstein_runtime>  (1014) 
33.39339351654053

>  <fragmenstein_outcome>  (1014) 
too moved

>  <fragmenstein_mode>  (1014) 
expansion

>  <fragmenstein_error>  (1014) 


$$$$
C6223-P82
     RDKit          3D

 39 42  0  0  0  0  0  0  0  0999 V2000
    0.8177  -14.0607   23.8351 C   0  0  0  0  0  0  0  0  0  0  0  0
   -0.1180  -13.3507   22.9133 C   0  0  0  0  0  0  0  0  0  0  0  0
    0.7680  -11.6854   22.5542 C   0  0  0  0  0  0  0  0  0  0  0  0
    2.4484  -11.4789   22.2515 C   0  0  0  0  0  0  0  0  0  0  0  0
    3.4059  -10.5825   21.4616 N   0  0  0  0  0  0  0  0  0  0  0  0
    4.0702  -11.5291   20.5167 C   0  0  0  0  0  0  0  0  0  0  0  0
    3.7978  -11.0058   19.0959 C   0  0  0  0  0  0  0  0  0  0  0  0
    3.1663   -9.6240   19.2176 C   0  0  0  0  0  0  0  0  0  0  0  0
    3.6679   -9.0961   20.5569 C   0  0  0  0  0  0  0  0  0  0  0  0
    5.3932   -8.3225   20.2817 C   0  0  0  0  0  0  0  0  0  0  0  0
    5.9457   -7.1827   19.1995 N   0  0  0  0  0  0  0  0  0  0  0  0
    5.1851   -6.8354   18.0656 C   0  0  0  0  0  0  0  0  0  0  0  0
    5.7111   -6.1960   17.0245 N   0  0  0  0  0  0  0  0  0  0  0  0
    7.0253   -5.8044   17.2760 C   0  0  0  0  0  0  0  0  0  0  0  0
    8.2211   -4.6303   16.2052 C   0  0  0  0  0  0  0  0  0  0  0  0
   10.1875   -4.5091   16.8914 C   0  0  0  0  0  0  0  0  0  0  0  0
   10.3571   -5.4443   18.5999 C   0  0  0  0  0  0  0  0  0  0  0  0
    9.0234   -6.2246   19.7179 C   0  0  0  0  0  0  0  0  0  0  0  0
    7.2681   -6.4379   18.9854 C   0  0  0  0  0  0  0  0  0  0  0  0
    3.0658  -12.3290   23.0875 N   0  0  0  0  0  0  0  0  0  0  0  0
    2.3949  -13.2702   23.9246 C   0  0  0  0  0  0  0  0  0  0  0  0
    0.3129  -14.4081   24.6492 H   0  0  0  0  0  0  0  0  0  0  0  0
   -0.2393  -14.1796   22.1218 H   0  0  0  0  0  0  0  0  0  0  0  0
    0.1444  -10.8790   22.0998 H   0  0  0  0  0  0  0  0  0  0  0  0
    3.7897  -12.5848   20.5935 H   0  0  0  0  0  0  0  0  0  0  0  0
    5.1512  -11.4698   20.6861 H   0  0  0  0  0  0  0  0  0  0  0  0
    3.1341  -11.6803   18.5444 H   0  0  0  0  0  0  0  0  0  0  0  0
    4.7381  -10.9582   18.5342 H   0  0  0  0  0  0  0  0  0  0  0  0
    2.0752   -9.7325   19.2596 H   0  0  0  0  0  0  0  0  0  0  0  0
    3.3960   -9.0016   18.3570 H   0  0  0  0  0  0  0  0  0  0  0  0
    3.0339   -8.3259   21.0055 H   0  0  0  0  0  0  0  0  0  0  0  0
    6.0684   -9.1521   20.0425 H   0  0  0  0  0  0  0  0  0  0  0  0
    5.6757   -7.8558   21.2319 H   0  0  0  0  0  0  0  0  0  0  0  0
    4.1459   -7.1288   18.0509 H   0  0  0  0  0  0  0  0  0  0  0  0
    7.9303   -3.7778   15.5329 H   0  0  0  0  0  0  0  0  0  0  0  0
   10.9813   -3.9569   16.3889 H   0  0  0  0  0  0  0  0  0  0  0  0
   11.3601   -5.3539   19.1490 H   0  0  0  0  0  0  0  0  0  0  0  0
    9.2020   -6.6645   20.6965 H   0  0  0  0  0  0  0  0  0  0  0  0
    3.2037  -13.6800   24.5417 H   0  0  0  0  0  0  0  0  0  0  0  0
  1  2  2  0
  2  3  1  0
  3  4  2  0
  4  5  1  0
  5  6  1  0
  6  7  1  0
  7  8  1  0
  8  9  1  0
  9 10  1  0
 10 11  1  0
 11 12  1  0
 12 13  2  0
 13 14  1  0
 14 15  2  0
 15 16  1  0
 16 17  2  0
 17 18  1  0
 18 19  2  0
  4 20  1  0
 20 21  2  0
 21  1  1  0
  9  5  1  0
 19 11  1  0
 19 14  1  0
  1 22  1  0
  2 23  1  0
  3 24  1  0
  6 25  1  0
  6 26  1  0
  7 27  1  0
  7 28  1  0
  8 29  1  0
  8 30  1  0
  9 31  1  0
 10 32  1  0
 10 33  1  0
 12 34  1  0
 15 35  1  0
 16 36  1  0
 17 37  1  0
 18 38  1  0
 21 39  1  0
M  END
>  <Energy>  (1015) 
969.10365911636939

>  <compound_id>  (1015) 
6223

>  <target_id>  (1015) 
1

>  <reference_id>  (1015) 
82

>  <inspiration_ids>  (1015) 
[82, 103]

>  <energy_score>  (1015) 
925.7520824924723

>  <distance_score>  (1015) 
14.545690485100405

>  <path>  (1015) 
/opt/xchem-fragalysis-2/maxwin/BulkDock/SCRATCH/511018/C6223-P82/C6223-P82.minimised.mol

>  <scratch_subdir>  (1015) 
/opt/xchem-fragalysis-2/maxwin/BulkDock/SCRATCH/511018/C6223-P82

>  <fragmenstein_runtime>  (1015) 
27.02101469039917

>  <fragmenstein_outcome>  (1015) 
too moved

>  <fragmenstein_mode>  (1015) 
expansion

>  <fragmenstein_error>  (1015) 


$$$$
C6223-P103
     RDKit          3D

 39 42  0  0  0  0  0  0  0  0999 V2000
   -3.1258  -21.1165   23.9316 C   0  0  0  0  0  0  0  0  0  0  0  0
   -3.3660  -20.5011   25.2220 C   0  0  0  0  0  0  0  0  0  0  0  0
   -2.5165  -19.3806   26.0793 C   0  0  0  0  0  0  0  0  0  0  0  0
   -1.9265  -18.5059   25.2830 C   0  0  0  0  0  0  0  0  0  0  0  0
   -0.6171  -17.2162   25.2992 N   0  0  0  0  0  0  0  0  0  0  0  0
    0.0347  -17.6891   26.9845 C   0  0  0  0  0  0  0  0  0  0  0  0
    1.4533  -16.3921   27.4822 C   0  0  0  0  0  0  0  0  0  0  0  0
    1.0567  -14.5635   26.5297 C   0  0  0  0  0  0  0  0  0  0  0  0
    0.0562  -15.0455   24.6761 C   0  0  0  0  0  0  0  0  0  0  0  0
    1.6115  -13.6148   23.9596 C   0  0  0  0  0  0  0  0  0  0  0  0
    2.9873  -12.7211   22.8092 N   0  0  0  0  0  0  0  0  0  0  0  0
    3.4014  -13.4115   21.2476 C   0  0  0  0  0  0  0  0  0  0  0  0
    3.6662  -12.6756   20.2172 N   0  0  0  0  0  0  0  0  0  0  0  0
    3.4830  -11.4093   20.5952 C   0  0  0  0  0  0  0  0  0  0  0  0
    3.6413  -10.3302   19.6635 C   0  0  0  0  0  0  0  0  0  0  0  0
    4.0600   -9.0800   20.0662 C   0  0  0  0  0  0  0  0  0  0  0  0
    4.4878   -9.0049   21.3580 C   0  0  0  0  0  0  0  0  0  0  0  0
    4.2665  -10.1008   22.2360 C   0  0  0  0  0  0  0  0  0  0  0  0
    3.3527  -11.2561   22.0221 C   0  0  0  0  0  0  0  0  0  0  0  0
   -1.5328  -19.3592   23.6564 N   0  0  0  0  0  0  0  0  0  0  0  0
   -2.1019  -20.5820   23.1907 C   0  0  0  0  0  0  0  0  0  0  0  0
   -3.7389  -21.9281   23.5663 H   0  0  0  0  0  0  0  0  0  0  0  0
   -4.3020  -20.8705   25.6128 H   0  0  0  0  0  0  0  0  0  0  0  0
   -2.7757  -19.0076   27.0195 H   0  0  0  0  0  0  0  0  0  0  0  0
    0.3770  -18.5623   26.5146 H   0  0  0  0  0  0  0  0  0  0  0  0
   -0.8925  -17.6723   27.5214 H   0  0  0  0  0  0  0  0  0  0  0  0
    2.4148  -16.8852   27.2540 H   0  0  0  0  0  0  0  0  0  0  0  0
    1.3050  -16.3646   28.5652 H   0  0  0  0  0  0  0  0  0  0  0  0
    1.9417  -13.9107   26.4491 H   0  0  0  0  0  0  0  0  0  0  0  0
    0.3695  -13.8517   26.9243 H   0  0  0  0  0  0  0  0  0  0  0  0
   -0.9280  -14.5219   24.4959 H   0  0  0  0  0  0  0  0  0  0  0  0
    1.9750  -12.9796   24.7498 H   0  0  0  0  0  0  0  0  0  0  0  0
    2.3092  -14.3918   23.4431 H   0  0  0  0  0  0  0  0  0  0  0  0
    3.3131  -14.4920   21.2509 H   0  0  0  0  0  0  0  0  0  0  0  0
    3.5742  -10.5647   18.6045 H   0  0  0  0  0  0  0  0  0  0  0  0
    4.2281   -8.2848   19.3516 H   0  0  0  0  0  0  0  0  0  0  0  0
    5.0837   -8.1591   21.6881 H   0  0  0  0  0  0  0  0  0  0  0  0
    5.0030  -10.0757   23.0329 H   0  0  0  0  0  0  0  0  0  0  0  0
   -1.7417  -20.9320   22.2360 H   0  0  0  0  0  0  0  0  0  0  0  0
  1  2  2  0
  2  3  1  0
  3  4  2  0
  4  5  1  0
  5  6  1  0
  6  7  1  0
  7  8  1  0
  8  9  1  0
  9 10  1  0
 10 11  1  0
 11 12  1  0
 12 13  2  0
 13 14  1  0
 14 15  2  0
 15 16  1  0
 16 17  2  0
 17 18  1  0
 18 19  2  0
  4 20  1  0
 20 21  2  0
 21  1  1  0
  9  5  1  0
 19 11  1  0
 19 14  1  0
  1 22  1  0
  2 23  1  0
  3 24  1  0
  6 25  1  0
  6 26  1  0
  7 27  1  0
  7 28  1  0
  8 29  1  0
  8 30  1  0
  9 31  1  0
 10 32  1  0
 10 33  1  0
 12 34  1  0
 15 35  1  0
 16 36  1  0
 17 37  1  0
 18 38  1  0
 21 39  1  0
M  END
>  <Energy>  (1016) 
1357.3646721782002

>  <compound_id>  (1016) 
6223

>  <target_id>  (1016) 
1

>  <reference_id>  (1016) 
103

>  <inspiration_ids>  (1016) 
[82, 103]

>  <energy_score>  (1016) 
1314.0130955542973

>  <distance_score>  (1016) 
14.561822603820158

>  <path>  (1016) 
/opt/xchem-fragalysis-2/maxwin/BulkDock/SCRATCH/511018/C6223-P103/C6223-P103.minimised.mol

>  <scratch_subdir>  (1016) 
/opt/xchem-fragalysis-2/maxwin/BulkDock/SCRATCH/511018/C6223-P103

>  <fragmenstein_runtime>  (1016) 
17.207683563232422

>  <fragmenstein_outcome>  (1016) 
too moved

>  <fragmenstein_mode>  (1016) 
expansion

>  <fragmenstein_error>  (1016) 


$$$$
C6225-P82
     RDKit          3D

 49 52  0  0  0  0  0  0  0  0999 V2000
    0.6004   -9.9685   18.6948 C   0  0  0  0  0  0  0  0  0  0  0  0
    0.9881  -10.3518   17.2693 C   0  0  0  0  0  0  0  0  0  0  0  0
    0.9568  -11.9445   17.0518 C   0  0  0  0  0  0  0  0  0  0  0  0
    2.0092  -12.4629   16.7880 O   0  0  0  0  0  0  0  0  0  0  0  0
   -0.4054  -12.5435   17.2274 N   0  0  0  0  0  0  0  0  0  0  0  0
   -0.8926  -13.9577   17.0305 C   0  0  0  0  0  0  0  0  0  0  0  0
   -2.1839  -14.5395   17.6967 C   0  0  0  0  0  0  0  0  0  0  0  0
   -3.4494  -14.0751   17.3570 C   0  0  0  0  0  0  0  0  0  0  0  0
   -4.5914  -14.8543   17.6223 C   0  0  0  0  0  0  0  0  0  0  0  0
   -4.5027  -16.0945   18.2614 C   0  0  0  0  0  0  0  0  0  0  0  0
   -5.6619  -16.8629   18.3722 N   0  0  0  0  0  0  0  0  0  0  0  0
   -5.6088  -18.0813   19.1825 C   0  0  0  0  0  0  0  0  0  0  0  0
   -6.7356  -18.9440   18.6242 C   0  0  0  0  0  0  0  0  0  0  0  0
   -6.6725  -18.6349   17.1424 C   0  0  0  0  0  0  0  0  0  0  0  0
   -6.3766  -17.1374   17.1143 C   0  0  0  0  0  0  0  0  0  0  0  0
   -3.3182  -16.4875   18.7627 N   0  0  0  0  0  0  0  0  0  0  0  0
   -2.2035  -15.7410   18.4416 C   0  0  0  0  0  0  0  0  0  0  0  0
    2.2167   -9.5911   16.7760 N   0  0  0  0  0  0  0  0  0  0  0  0
    2.3043   -9.1500   15.4630 C   0  0  0  0  0  0  0  0  0  0  0  0
    3.1938   -8.2011   15.2814 N   0  0  0  0  0  0  0  0  0  0  0  0
    3.7818   -8.0277   16.4985 C   0  0  0  0  0  0  0  0  0  0  0  0
    4.7852   -7.1047   16.8504 C   0  0  0  0  0  0  0  0  0  0  0  0
    5.2728   -7.0977   18.1559 C   0  0  0  0  0  0  0  0  0  0  0  0
    4.7855   -8.0136   19.0831 C   0  0  0  0  0  0  0  0  0  0  0  0
    3.7650   -8.9282   18.7541 C   0  0  0  0  0  0  0  0  0  0  0  0
    3.2428   -8.9115   17.4496 C   0  0  0  0  0  0  0  0  0  0  0  0
    0.5592   -8.8809   18.8176 H   0  0  0  0  0  0  0  0  0  0  0  0
    1.3101  -10.3674   19.4218 H   0  0  0  0  0  0  0  0  0  0  0  0
   -0.3841  -10.3674   18.9598 H   0  0  0  0  0  0  0  0  0  0  0  0
    0.1948   -9.9666   16.6108 H   0  0  0  0  0  0  0  0  0  0  0  0
   -1.0802  -11.8016   17.3636 H   0  0  0  0  0  0  0  0  0  0  0  0
   -0.0435  -14.6079   17.2692 H   0  0  0  0  0  0  0  0  0  0  0  0
   -1.0297  -14.0578   15.9460 H   0  0  0  0  0  0  0  0  0  0  0  0
   -3.5637  -13.1653   16.7727 H   0  0  0  0  0  0  0  0  0  0  0  0
   -5.5573  -14.4964   17.2765 H   0  0  0  0  0  0  0  0  0  0  0  0
   -5.8068  -17.8484   20.2303 H   0  0  0  0  0  0  0  0  0  0  0  0
   -4.6561  -18.6135   19.0791 H   0  0  0  0  0  0  0  0  0  0  0  0
   -7.7005  -18.6244   19.0362 H   0  0  0  0  0  0  0  0  0  0  0  0
   -6.6000  -20.0060   18.8462 H   0  0  0  0  0  0  0  0  0  0  0  0
   -5.8473  -19.1889   16.6787 H   0  0  0  0  0  0  0  0  0  0  0  0
   -7.5948  -18.8893   16.6128 H   0  0  0  0  0  0  0  0  0  0  0  0
   -5.8078  -16.8874   16.2107 H   0  0  0  0  0  0  0  0  0  0  0  0
   -7.3104  -16.5638   17.1068 H   0  0  0  0  0  0  0  0  0  0  0  0
   -1.2734  -16.2079   18.7640 H   0  0  0  0  0  0  0  0  0  0  0  0
    1.6533   -9.5406   14.6913 H   0  0  0  0  0  0  0  0  0  0  0  0
    5.1580   -6.4150   16.1025 H   0  0  0  0  0  0  0  0  0  0  0  0
    6.0382   -6.3869   18.4443 H   0  0  0  0  0  0  0  0  0  0  0  0
    5.1844   -8.0188   20.0958 H   0  0  0  0  0  0  0  0  0  0  0  0
    3.4042   -9.6250   19.5038 H   0  0  0  0  0  0  0  0  0  0  0  0
  1  2  1  0
  2  3  1  0
  3  4  2  0
  3  5  1  0
  5  6  1  0
  6  7  1  0
  7  8  2  0
  8  9  1  0
  9 10  2  0
 10 11  1  0
 11 12  1  0
 12 13  1  0
 13 14  1  0
 14 15  1  0
 10 16  1  0
 16 17  2  0
  2 18  1  0
 18 19  1  0
 19 20  2  0
 20 21  1  0
 21 22  2  0
 22 23  1  0
 23 24  2  0
 24 25  1  0
 25 26  2  0
 17  7  1  0
 26 18  1  0
 15 11  1  0
 26 21  1  0
  1 27  1  0
  1 28  1  0
  1 29  1  0
  2 30  1  0
  5 31  1  0
  6 32  1  0
  6 33  1  0
  8 34  1  0
  9 35  1  0
 12 36  1  0
 12 37  1  0
 13 38  1  0
 13 39  1  0
 14 40  1  0
 14 41  1  0
 15 42  1  0
 15 43  1  0
 17 44  1  0
 19 45  1  0
 22 46  1  0
 23 47  1  0
 24 48  1  0
 25 49  1  0
M  END
>  <Energy>  (1017) 
29.937513067406357

>  <compound_id>  (1017) 
6225

>  <target_id>  (1017) 
1

>  <reference_id>  (1017) 
82

>  <inspiration_ids>  (1017) 
[82, 103]

>  <energy_score>  (1017) 
0.10843522210006995

>  <distance_score>  (1017) 
15.693502060435499

>  <path>  (1017) 
/opt/xchem-fragalysis-2/maxwin/BulkDock/SCRATCH/511018/C6225-P82/C6225-P82.minimised.mol

>  <scratch_subdir>  (1017) 
/opt/xchem-fragalysis-2/maxwin/BulkDock/SCRATCH/511018/C6225-P82

>  <fragmenstein_runtime>  (1017) 
36.97636556625366

>  <fragmenstein_outcome>  (1017) 
too moved

>  <fragmenstein_mode>  (1017) 
expansion

>  <fragmenstein_error>  (1017) 


$$$$
C6225-P103
     RDKit          3D

 49 52  0  0  0  0  0  0  0  0999 V2000
    5.4373  -21.3044   25.4228 C   0  0  0  0  0  0  0  0  0  0  0  0
    5.4728  -19.7625   25.5666 C   0  0  0  0  0  0  0  0  0  0  0  0
    3.5441  -19.2376   25.4406 C   0  0  0  0  0  0  0  0  0  0  0  0
    3.0596  -19.7302   24.4557 O   0  0  0  0  0  0  0  0  0  0  0  0
    2.5782  -18.3139   26.7007 N   0  0  0  0  0  0  0  0  0  0  0  0
    0.5779  -18.0239   26.9090 C   0  0  0  0  0  0  0  0  0  0  0  0
   -1.2790  -18.4189   26.3049 C   0  0  0  0  0  0  0  0  0  0  0  0
   -2.6453  -18.7433   26.5408 C   0  0  0  0  0  0  0  0  0  0  0  0
   -4.1906  -19.9528   25.8638 C   0  0  0  0  0  0  0  0  0  0  0  0
   -4.5772  -20.6930   24.8686 C   0  0  0  0  0  0  0  0  0  0  0  0
   -5.6920  -21.3214   24.4534 N   0  0  0  0  0  0  0  0  0  0  0  0
   -5.9655  -22.5488   25.2106 C   0  0  0  0  0  0  0  0  0  0  0  0
   -6.6244  -22.0984   26.5223 C   0  0  0  0  0  0  0  0  0  0  0  0
   -7.1281  -20.6869   26.2660 C   0  0  0  0  0  0  0  0  0  0  0  0
   -6.8390  -20.4614   24.7502 C   0  0  0  0  0  0  0  0  0  0  0  0
   -3.4919  -20.1999   24.3519 N   0  0  0  0  0  0  0  0  0  0  0  0
   -2.2579  -19.2068   25.4408 C   0  0  0  0  0  0  0  0  0  0  0  0
    6.7965  -19.3521   24.4007 N   0  0  0  0  0  0  0  0  0  0  0  0
    6.8186  -19.8983   23.0999 C   0  0  0  0  0  0  0  0  0  0  0  0
    7.3897  -19.1357   22.1853 N   0  0  0  0  0  0  0  0  0  0  0  0
    7.8638  -18.0383   22.8322 C   0  0  0  0  0  0  0  0  0  0  0  0
    8.4812  -16.8928   22.2612 C   0  0  0  0  0  0  0  0  0  0  0  0
    8.9961  -15.8918   23.0812 C   0  0  0  0  0  0  0  0  0  0  0  0
    8.9425  -16.0655   24.4580 C   0  0  0  0  0  0  0  0  0  0  0  0
    8.3293  -17.2037   25.0438 C   0  0  0  0  0  0  0  0  0  0  0  0
    7.6940  -18.1816   24.2238 C   0  0  0  0  0  0  0  0  0  0  0  0
    4.8642  -21.7429   26.2451 H   0  0  0  0  0  0  0  0  0  0  0  0
    4.9531  -21.6113   24.4926 H   0  0  0  0  0  0  0  0  0  0  0  0
    6.4435  -21.7357   25.4514 H   0  0  0  0  0  0  0  0  0  0  0  0
    6.0063  -19.6414   26.5180 H   0  0  0  0  0  0  0  0  0  0  0  0
    3.1866  -18.0675   27.4758 H   0  0  0  0  0  0  0  0  0  0  0  0
    0.3023  -17.9912   27.9674 H   0  0  0  0  0  0  0  0  0  0  0  0
    0.9700  -17.0951   27.3108 H   0  0  0  0  0  0  0  0  0  0  0  0
   -3.0139  -17.9806   27.3122 H   0  0  0  0  0  0  0  0  0  0  0  0
   -5.1432  -19.7556   26.4205 H   0  0  0  0  0  0  0  0  0  0  0  0
   -5.0935  -23.1822   25.3706 H   0  0  0  0  0  0  0  0  0  0  0  0
   -6.6557  -23.1612   24.6194 H   0  0  0  0  0  0  0  0  0  0  0  0
   -7.4234  -22.7479   26.8531 H   0  0  0  0  0  0  0  0  0  0  0  0
   -5.9104  -22.1114   27.3362 H   0  0  0  0  0  0  0  0  0  0  0  0
   -8.1377  -20.4336   26.5640 H   0  0  0  0  0  0  0  0  0  0  0  0
   -6.6658  -20.0465   27.0124 H   0  0  0  0  0  0  0  0  0  0  0  0
   -7.6513  -20.7959   24.1012 H   0  0  0  0  0  0  0  0  0  0  0  0
   -6.6742  -19.4418   24.4143 H   0  0  0  0  0  0  0  0  0  0  0  0
   -1.9193  -20.1493   26.2948 H   0  0  0  0  0  0  0  0  0  0  0  0
    6.2853  -20.8115   22.8757 H   0  0  0  0  0  0  0  0  0  0  0  0
    8.5623  -16.8280   21.1809 H   0  0  0  0  0  0  0  0  0  0  0  0
    9.4730  -15.0188   22.6475 H   0  0  0  0  0  0  0  0  0  0  0  0
    9.3862  -15.3157   25.1112 H   0  0  0  0  0  0  0  0  0  0  0  0
    8.3347  -17.3006   26.1267 H   0  0  0  0  0  0  0  0  0  0  0  0
  1  2  1  0
  2  3  1  0
  3  4  2  0
  3  5  1  0
  5  6  1  0
  6  7  1  0
  7  8  2  0
  8  9  1  0
  9 10  2  0
 10 11  1  0
 11 12  1  0
 12 13  1  0
 13 14  1  0
 14 15  1  0
 10 16  1  0
 16 17  2  0
  2 18  1  0
 18 19  1  0
 19 20  2  0
 20 21  1  0
 21 22  2  0
 22 23  1  0
 23 24  2  0
 24 25  1  0
 25 26  2  0
 17  7  1  0
 26 18  1  0
 15 11  1  0
 26 21  1  0
  1 27  1  0
  1 28  1  0
  1 29  1  0
  2 30  1  0
  5 31  1  0
  6 32  1  0
  6 33  1  0
  8 34  1  0
  9 35  1  0
 12 36  1  0
 12 37  1  0
 13 38  1  0
 13 39  1  0
 14 40  1  0
 14 41  1  0
 15 42  1  0
 15 43  1  0
 17 44  1  0
 19 45  1  0
 22 46  1  0
 23 47  1  0
 24 48  1  0
 25 49  1  0
M  END
>  <Energy>  (1018) 
1011.5772934117261

>  <compound_id>  (1018) 
6225

>  <target_id>  (1018) 
1

>  <reference_id>  (1018) 
103

>  <inspiration_ids>  (1018) 
[82, 103]

>  <energy_score>  (1018) 
981.7482155664185

>  <distance_score>  (1018) 
16.823960072509646

>  <path>  (1018) 
/opt/xchem-fragalysis-2/maxwin/BulkDock/SCRATCH/511018/C6225-P103/C6225-P103.minimised.mol

>  <scratch_subdir>  (1018) 
/opt/xchem-fragalysis-2/maxwin/BulkDock/SCRATCH/511018/C6225-P103

>  <fragmenstein_runtime>  (1018) 
30.835023641586304

>  <fragmenstein_outcome>  (1018) 
too moved

>  <fragmenstein_mode>  (1018) 
expansion

>  <fragmenstein_error>  (1018) 


$$$$
C6234-P82
     RDKit          3D

 34 36  0  0  0  0  0  0  0  0999 V2000
    2.4482  -12.0694   24.3152 O   0  0  0  0  0  0  0  0  0  0  0  0
    2.3999  -12.8604   23.4749 C   0  0  0  0  0  0  0  0  0  0  0  0
    3.6037  -12.8429   21.8945 C   0  0  0  0  0  0  0  0  0  0  0  0
    5.0298  -12.4986   20.6772 N   0  0  0  0  0  0  0  0  0  0  0  0
    4.9674  -12.9388   19.3170 C   0  0  0  0  0  0  0  0  0  0  0  0
    5.9323  -12.5674   18.5100 N   0  0  0  0  0  0  0  0  0  0  0  0
    6.8387  -11.9604   19.2851 C   0  0  0  0  0  0  0  0  0  0  0  0
    8.0812  -11.4440   18.8459 C   0  0  0  0  0  0  0  0  0  0  0  0
    9.0319  -11.0295   19.7671 C   0  0  0  0  0  0  0  0  0  0  0  0
    8.7253  -11.0901   21.1104 C   0  0  0  0  0  0  0  0  0  0  0  0
    7.4442  -11.5009   21.5515 C   0  0  0  0  0  0  0  0  0  0  0  0
    6.4374  -11.9584   20.6387 C   0  0  0  0  0  0  0  0  0  0  0  0
    1.0285  -14.1733   23.4277 N   0  0  0  0  0  0  0  0  0  0  0  0
   -0.4163  -14.3889   24.4356 N   0  0  0  0  0  0  0  0  0  0  0  0
   -1.6389  -15.3201   24.3664 C   0  0  0  0  0  0  0  0  0  0  0  0
   -2.9913  -16.4168   24.9909 C   0  0  0  0  0  0  0  0  0  0  0  0
   -2.8788  -17.5004   25.9606 C   0  0  0  0  0  0  0  0  0  0  0  0
   -3.9342  -18.3910   26.2263 C   0  0  0  0  0  0  0  0  0  0  0  0
   -5.1069  -18.3736   25.5776 N   0  0  0  0  0  0  0  0  0  0  0  0
   -5.2305  -17.4365   24.6183 C   0  0  0  0  0  0  0  0  0  0  0  0
   -4.2381  -16.4879   24.2917 C   0  0  0  0  0  0  0  0  0  0  0  0
    3.8345  -11.7989   22.1190 H   0  0  0  0  0  0  0  0  0  0  0  0
    3.2182  -13.3795   21.0593 H   0  0  0  0  0  0  0  0  0  0  0  0
    4.1268  -13.4788   18.9225 H   0  0  0  0  0  0  0  0  0  0  0  0
    8.3110  -11.4692   17.7842 H   0  0  0  0  0  0  0  0  0  0  0  0
   10.0179  -10.7193   19.4404 H   0  0  0  0  0  0  0  0  0  0  0  0
    9.4666  -10.7882   21.8485 H   0  0  0  0  0  0  0  0  0  0  0  0
    7.2619  -11.4370   22.6247 H   0  0  0  0  0  0  0  0  0  0  0  0
    1.1148  -14.7334   22.5476 H   0  0  0  0  0  0  0  0  0  0  0  0
   -1.9959  -14.7453   25.2728 H   0  0  0  0  0  0  0  0  0  0  0  0
   -1.9957  -17.7025   26.5582 H   0  0  0  0  0  0  0  0  0  0  0  0
   -3.8319  -19.1659   26.9822 H   0  0  0  0  0  0  0  0  0  0  0  0
   -6.1743  -17.4514   24.0771 H   0  0  0  0  0  0  0  0  0  0  0  0
   -4.4448  -15.8180   23.4677 H   0  0  0  0  0  0  0  0  0  0  0  0
  1  2  2  0
  2  3  1  0
  3  4  1  0
  4  5  1  0
  5  6  2  0
  6  7  1  0
  7  8  2  0
  8  9  1  0
  9 10  2  0
 10 11  1  0
 11 12  2  0
  2 13  1  0
 13 14  1  0
 14 15  2  3
 15 16  1  0
 16 17  2  0
 17 18  1  0
 18 19  2  0
 19 20  1  0
 20 21  2  0
 12  4  1  0
 21 16  1  0
 12  7  1  0
  3 22  1  0
  3 23  1  0
  5 24  1  0
  8 25  1  0
  9 26  1  0
 10 27  1  0
 11 28  1  0
 13 29  1  0
 15 30  1  0
 17 31  1  0
 18 32  1  0
 20 33  1  0
 21 34  1  0
M  END
>  <Energy>  (1019) 
564.87440356375646

>  <compound_id>  (1019) 
6234

>  <target_id>  (1019) 
1

>  <reference_id>  (1019) 
82

>  <inspiration_ids>  (1019) 
[82, 103]

>  <energy_score>  (1019) 
476.91447935828955

>  <distance_score>  (1019) 
13.742639058881382

>  <path>  (1019) 
/opt/xchem-fragalysis-2/maxwin/BulkDock/SCRATCH/511018/C6234-P82/C6234-P82.minimised.mol

>  <scratch_subdir>  (1019) 
/opt/xchem-fragalysis-2/maxwin/BulkDock/SCRATCH/511018/C6234-P82

>  <fragmenstein_runtime>  (1019) 
25.95887041091919

>  <fragmenstein_outcome>  (1019) 
too moved

>  <fragmenstein_mode>  (1019) 
expansion

>  <fragmenstein_error>  (1019) 


$$$$
C6234-P103
     RDKit          3D

 34 36  0  0  0  0  0  0  0  0999 V2000
    3.0558  -15.0026   23.5821 O   0  0  0  0  0  0  0  0  0  0  0  0
    2.2978  -14.0779   23.3556 C   0  0  0  0  0  0  0  0  0  0  0  0
    3.0841  -12.4836   22.8110 C   0  0  0  0  0  0  0  0  0  0  0  0
    4.4086  -11.5852   21.8874 N   0  0  0  0  0  0  0  0  0  0  0  0
    5.7579  -10.9665   22.6958 C   0  0  0  0  0  0  0  0  0  0  0  0
    6.9369  -11.1970   22.0800 N   0  0  0  0  0  0  0  0  0  0  0  0
    6.7243  -11.6344   20.7962 C   0  0  0  0  0  0  0  0  0  0  0  0
    7.7281  -11.6774   19.8006 C   0  0  0  0  0  0  0  0  0  0  0  0
    7.4478  -12.2259   18.5638 C   0  0  0  0  0  0  0  0  0  0  0  0
    6.2088  -12.8106   18.3729 C   0  0  0  0  0  0  0  0  0  0  0  0
    5.2007  -12.7955   19.3686 C   0  0  0  0  0  0  0  0  0  0  0  0
    5.3860  -12.0844   20.5759 C   0  0  0  0  0  0  0  0  0  0  0  0
    0.3651  -13.9075   23.5881 N   0  0  0  0  0  0  0  0  0  0  0  0
   -0.9161  -15.0103   24.3406 N   0  0  0  0  0  0  0  0  0  0  0  0
   -2.2792  -15.4222   24.5116 C   0  0  0  0  0  0  0  0  0  0  0  0
   -3.1803  -16.8473   25.2464 C   0  0  0  0  0  0  0  0  0  0  0  0
   -2.8413  -17.7544   26.2917 C   0  0  0  0  0  0  0  0  0  0  0  0
   -3.7488  -18.7356   26.7267 C   0  0  0  0  0  0  0  0  0  0  0  0
   -4.9719  -18.9296   26.2017 N   0  0  0  0  0  0  0  0  0  0  0  0
   -5.3140  -18.1013   25.2002 C   0  0  0  0  0  0  0  0  0  0  0  0
   -4.4880  -17.0796   24.7105 C   0  0  0  0  0  0  0  0  0  0  0  0
    3.6277  -12.6200   23.7037 H   0  0  0  0  0  0  0  0  0  0  0  0
    2.4571  -11.6922   23.1427 H   0  0  0  0  0  0  0  0  0  0  0  0
    5.7609  -10.7582   23.7344 H   0  0  0  0  0  0  0  0  0  0  0  0
    8.7181  -11.2966   20.0277 H   0  0  0  0  0  0  0  0  0  0  0  0
    8.2018  -12.2581   17.7839 H   0  0  0  0  0  0  0  0  0  0  0  0
    5.9845  -13.2950   17.4241 H   0  0  0  0  0  0  0  0  0  0  0  0
    4.2491  -13.2198   19.0962 H   0  0  0  0  0  0  0  0  0  0  0  0
    0.0310  -12.9740   23.3822 H   0  0  0  0  0  0  0  0  0  0  0  0
   -3.0774  -15.1011   23.8310 H   0  0  0  0  0  0  0  0  0  0  0  0
   -1.9063  -17.7395   26.8397 H   0  0  0  0  0  0  0  0  0  0  0  0
   -3.4853  -19.4066   27.5417 H   0  0  0  0  0  0  0  0  0  0  0  0
   -6.3033  -18.2641   24.7798 H   0  0  0  0  0  0  0  0  0  0  0  0
   -4.8704  -16.4555   23.9059 H   0  0  0  0  0  0  0  0  0  0  0  0
  1  2  2  0
  2  3  1  0
  3  4  1  0
  4  5  1  0
  5  6  2  0
  6  7  1  0
  7  8  2  0
  8  9  1  0
  9 10  2  0
 10 11  1  0
 11 12  2  0
  2 13  1  0
 13 14  1  0
 14 15  2  3
 15 16  1  0
 16 17  2  0
 17 18  1  0
 18 19  2  0
 19 20  1  0
 20 21  2  0
 12  4  1  0
 21 16  1  0
 12  7  1  0
  3 22  1  0
  3 23  1  0
  5 24  1  0
  8 25  1  0
  9 26  1  0
 10 27  1  0
 11 28  1  0
 13 29  1  0
 15 30  1  0
 17 31  1  0
 18 32  1  0
 20 33  1  0
 21 34  1  0
M  END
>  <Energy>  (1020) 
536.47410635544441

>  <compound_id>  (1020) 
6234

>  <target_id>  (1020) 
1

>  <reference_id>  (1020) 
103

>  <inspiration_ids>  (1020) 
[82, 103]

>  <energy_score>  (1020) 
448.51418214997534

>  <distance_score>  (1020) 
13.584297694908548

>  <path>  (1020) 
/opt/xchem-fragalysis-2/maxwin/BulkDock/SCRATCH/511018/C6234-P103/C6234-P103.minimised.mol

>  <scratch_subdir>  (1020) 
/opt/xchem-fragalysis-2/maxwin/BulkDock/SCRATCH/511018/C6234-P103

>  <fragmenstein_runtime>  (1020) 
19.54848575592041

>  <fragmenstein_outcome>  (1020) 
too moved

>  <fragmenstein_mode>  (1020) 
expansion

>  <fragmenstein_error>  (1020) 


$$$$
C6236-P82
     RDKit          3D

 44 46  0  0  0  0  0  0  0  0999 V2000
   -2.8606  -17.2413   25.6666 O   0  0  0  0  0  0  0  0  0  0  0  0
   -3.3572  -16.6649   24.7409 C   0  0  0  0  0  0  0  0  0  0  0  0
   -2.3821  -15.4142   23.9228 C   0  0  0  0  0  0  0  0  0  0  0  0
   -1.1834  -14.8959   22.3856 C   0  0  0  0  0  0  0  0  0  0  0  0
   -2.0562  -14.4036   20.7558 N   0  0  0  0  0  0  0  0  0  0  0  0
   -2.2954  -15.3295   19.7024 C   0  0  0  0  0  0  0  0  0  0  0  0
   -2.6955  -14.7843   18.5758 N   0  0  0  0  0  0  0  0  0  0  0  0
   -2.7055  -13.4219   18.7342 C   0  0  0  0  0  0  0  0  0  0  0  0
   -2.8471  -12.4410   17.7205 C   0  0  0  0  0  0  0  0  0  0  0  0
   -2.6817  -11.0861   18.0046 C   0  0  0  0  0  0  0  0  0  0  0  0
   -2.3761  -10.7026   19.2955 C   0  0  0  0  0  0  0  0  0  0  0  0
   -2.1744  -11.6596   20.3073 C   0  0  0  0  0  0  0  0  0  0  0  0
   -2.3757  -13.0536   20.0561 C   0  0  0  0  0  0  0  0  0  0  0  0
   -4.6255  -16.8680   24.0767 N   0  0  0  0  0  0  0  0  0  0  0  0
   -5.6536  -17.8891   24.2643 C   0  0  0  0  0  0  0  0  0  0  0  0
   -6.5845  -17.9298   23.0254 C   0  0  0  0  0  0  0  0  0  0  0  0
   -5.8777  -17.9849   21.6699 C   0  0  0  0  0  0  0  0  0  0  0  0
   -5.2301  -16.7425   21.4084 O   0  0  0  0  0  0  0  0  0  0  0  0
   -5.1896  -19.2586   24.7967 C   0  0  0  0  0  0  0  0  0  0  0  0
   -5.2063  -20.4555   24.0682 C   0  0  0  0  0  0  0  0  0  0  0  0
   -4.9284  -21.6696   24.7118 C   0  0  0  0  0  0  0  0  0  0  0  0
   -4.6141  -21.7854   26.0167 N   0  0  0  0  0  0  0  0  0  0  0  0
   -4.5368  -20.6296   26.6994 C   0  0  0  0  0  0  0  0  0  0  0  0
   -4.8098  -19.3810   26.1421 C   0  0  0  0  0  0  0  0  0  0  0  0
   -1.9084  -14.9965   24.8192 H   0  0  0  0  0  0  0  0  0  0  0  0
   -3.3086  -15.0055   23.5624 H   0  0  0  0  0  0  0  0  0  0  0  0
   -0.5003  -15.6694   21.9063 H   0  0  0  0  0  0  0  0  0  0  0  0
   -0.3812  -14.1747   22.6658 H   0  0  0  0  0  0  0  0  0  0  0  0
   -2.1060  -16.3855   19.8362 H   0  0  0  0  0  0  0  0  0  0  0  0
   -3.0610  -12.7666   16.7076 H   0  0  0  0  0  0  0  0  0  0  0  0
   -2.7834  -10.3428   17.2204 H   0  0  0  0  0  0  0  0  0  0  0  0
   -2.2030   -9.6510   19.5192 H   0  0  0  0  0  0  0  0  0  0  0  0
   -1.7732  -11.2738   21.2274 H   0  0  0  0  0  0  0  0  0  0  0  0
   -4.6829  -16.2448   23.2703 H   0  0  0  0  0  0  0  0  0  0  0  0
   -6.2760  -17.4815   25.0731 H   0  0  0  0  0  0  0  0  0  0  0  0
   -7.1882  -17.0116   23.0397 H   0  0  0  0  0  0  0  0  0  0  0  0
   -7.2850  -18.7674   23.1027 H   0  0  0  0  0  0  0  0  0  0  0  0
   -6.6173  -18.1503   20.8797 H   0  0  0  0  0  0  0  0  0  0  0  0
   -5.1294  -18.7791   21.6209 H   0  0  0  0  0  0  0  0  0  0  0  0
   -4.9572  -16.7590   20.4689 H   0  0  0  0  0  0  0  0  0  0  0  0
   -5.4860  -20.4932   23.0226 H   0  0  0  0  0  0  0  0  0  0  0  0
   -4.9758  -22.6100   24.1677 H   0  0  0  0  0  0  0  0  0  0  0  0
   -4.2411  -20.7163   27.7414 H   0  0  0  0  0  0  0  0  0  0  0  0
   -4.7211  -18.5021   26.7738 H   0  0  0  0  0  0  0  0  0  0  0  0
  1  2  2  0
  2  3  1  0
  3  4  1  0
  4  5  1  0
  5  6  1  0
  6  7  2  0
  7  8  1  0
  8  9  2  0
  9 10  1  0
 10 11  2  0
 11 12  1  0
 12 13  2  0
  2 14  1  0
 14 15  1  0
 15 16  1  0
 16 17  1  0
 17 18  1  0
 15 19  1  0
 19 20  2  0
 20 21  1  0
 21 22  2  0
 22 23  1  0
 23 24  2  0
 13  5  1  0
 24 19  1  0
 13  8  1  0
  3 25  1  0
  3 26  1  0
  4 27  1  0
  4 28  1  0
  6 29  1  0
  9 30  1  0
 10 31  1  0
 11 32  1  0
 12 33  1  0
 14 34  1  0
 15 35  1  0
 16 36  1  0
 16 37  1  0
 17 38  1  0
 17 39  1  0
 18 40  1  0
 20 41  1  0
 21 42  1  0
 23 43  1  0
 24 44  1  0
M  END
>  <Energy>  (1021) 
205.56550881414822

>  <compound_id>  (1021) 
6236

>  <target_id>  (1021) 
1

>  <reference_id>  (1021) 
82

>  <inspiration_ids>  (1021) 
[82, 103]

>  <energy_score>  (1021) 
180.26447067211438

>  <distance_score>  (1021) 
17.069680389742302

>  <path>  (1021) 
/opt/xchem-fragalysis-2/maxwin/BulkDock/SCRATCH/511018/C6236-P82/C6236-P82.minimised.mol

>  <scratch_subdir>  (1021) 
/opt/xchem-fragalysis-2/maxwin/BulkDock/SCRATCH/511018/C6236-P82

>  <fragmenstein_runtime>  (1021) 
35.26462531089783

>  <fragmenstein_outcome>  (1021) 
too moved

>  <fragmenstein_mode>  (1021) 
expansion

>  <fragmenstein_error>  (1021) 


$$$$
C6236-P103
     RDKit          3D

 44 46  0  0  0  0  0  0  0  0999 V2000
   -1.5648  -10.5600   29.0950 O   0  0  0  0  0  0  0  0  0  0  0  0
   -1.2274  -10.5064   27.9293 C   0  0  0  0  0  0  0  0  0  0  0  0
    0.6554   -9.9469   27.8358 C   0  0  0  0  0  0  0  0  0  0  0  0
    2.4613  -10.3807   28.6228 C   0  0  0  0  0  0  0  0  0  0  0  0
    4.2614  -10.0340   28.5247 N   0  0  0  0  0  0  0  0  0  0  0  0
    5.1465   -9.3805   29.4513 C   0  0  0  0  0  0  0  0  0  0  0  0
    5.9283   -8.5123   28.8134 N   0  0  0  0  0  0  0  0  0  0  0  0
    6.1922   -9.1514   27.6543 C   0  0  0  0  0  0  0  0  0  0  0  0
    7.2053   -8.8889   26.7115 C   0  0  0  0  0  0  0  0  0  0  0  0
    7.7108   -9.9700   25.9951 C   0  0  0  0  0  0  0  0  0  0  0  0
    7.2524  -11.2531   26.2987 C   0  0  0  0  0  0  0  0  0  0  0  0
    6.1563  -11.4739   27.1808 C   0  0  0  0  0  0  0  0  0  0  0  0
    5.4459  -10.3479   27.6810 C   0  0  0  0  0  0  0  0  0  0  0  0
   -2.4342  -11.1086   26.5306 N   0  0  0  0  0  0  0  0  0  0  0  0
   -4.1441  -11.9885   26.6261 C   0  0  0  0  0  0  0  0  0  0  0  0
   -4.6186  -11.9721   24.6559 C   0  0  0  0  0  0  0  0  0  0  0  0
   -6.2423  -12.0387   24.2204 C   0  0  0  0  0  0  0  0  0  0  0  0
   -6.5572  -12.6741   22.9850 O   0  0  0  0  0  0  0  0  0  0  0  0
   -6.0651  -11.8773   27.2054 C   0  0  0  0  0  0  0  0  0  0  0  0
   -7.0281  -13.0093   27.2981 C   0  0  0  0  0  0  0  0  0  0  0  0
   -8.3904  -12.9425   27.6208 C   0  0  0  0  0  0  0  0  0  0  0  0
   -9.0354  -11.8091   27.8346 N   0  0  0  0  0  0  0  0  0  0  0  0
   -8.2866  -10.7242   27.5999 C   0  0  0  0  0  0  0  0  0  0  0  0
   -6.9201  -10.7158   27.2212 C   0  0  0  0  0  0  0  0  0  0  0  0
    0.4211   -9.4562   28.7774 H   0  0  0  0  0  0  0  0  0  0  0  0
    0.7995  -11.0015   27.6121 H   0  0  0  0  0  0  0  0  0  0  0  0
    2.3546  -10.2588   29.7104 H   0  0  0  0  0  0  0  0  0  0  0  0
    2.5040  -11.4624   28.6275 H   0  0  0  0  0  0  0  0  0  0  0  0
    5.0771   -9.4249   30.5344 H   0  0  0  0  0  0  0  0  0  0  0  0
    7.6948   -7.9220   26.6755 H   0  0  0  0  0  0  0  0  0  0  0  0
    8.5371   -9.8292   25.3043 H   0  0  0  0  0  0  0  0  0  0  0  0
    7.7441  -12.1129   25.8463 H   0  0  0  0  0  0  0  0  0  0  0  0
    5.8484  -12.4901   27.4153 H   0  0  0  0  0  0  0  0  0  0  0  0
   -1.9891  -11.0828   25.6977 H   0  0  0  0  0  0  0  0  0  0  0  0
   -3.6461  -12.9257   26.6750 H   0  0  0  0  0  0  0  0  0  0  0  0
   -4.3983  -11.0186   24.1240 H   0  0  0  0  0  0  0  0  0  0  0  0
   -3.7719  -12.5054   24.3844 H   0  0  0  0  0  0  0  0  0  0  0  0
   -6.6001  -11.0037   24.1387 H   0  0  0  0  0  0  0  0  0  0  0  0
   -6.9036  -12.5187   24.9294 H   0  0  0  0  0  0  0  0  0  0  0  0
   -5.9911  -12.1993   22.3421 H   0  0  0  0  0  0  0  0  0  0  0  0
   -6.7950  -14.0401   27.0878 H   0  0  0  0  0  0  0  0  0  0  0  0
   -8.9952  -13.8336   27.6452 H   0  0  0  0  0  0  0  0  0  0  0  0
   -8.8205   -9.7796   27.6819 H   0  0  0  0  0  0  0  0  0  0  0  0
   -6.5726   -9.7139   26.9862 H   0  0  0  0  0  0  0  0  0  0  0  0
  1  2  2  0
  2  3  1  0
  3  4  1  0
  4  5  1  0
  5  6  1  0
  6  7  2  0
  7  8  1  0
  8  9  2  0
  9 10  1  0
 10 11  2  0
 11 12  1  0
 12 13  2  0
  2 14  1  0
 14 15  1  0
 15 16  1  0
 16 17  1  0
 17 18  1  0
 15 19  1  0
 19 20  2  0
 20 21  1  0
 21 22  2  0
 22 23  1  0
 23 24  2  0
 13  5  1  0
 24 19  1  0
 13  8  1  0
  3 25  1  0
  3 26  1  0
  4 27  1  0
  4 28  1  0
  6 29  1  0
  9 30  1  0
 10 31  1  0
 11 32  1  0
 12 33  1  0
 14 34  1  0
 15 35  1  0
 16 36  1  0
 16 37  1  0
 17 38  1  0
 17 39  1  0
 18 40  1  0
 20 41  1  0
 21 42  1  0
 23 43  1  0
 24 44  1  0
M  END
>  <Energy>  (1022) 
683.26700245438087

>  <compound_id>  (1022) 
6236

>  <target_id>  (1022) 
1

>  <reference_id>  (1022) 
103

>  <inspiration_ids>  (1022) 
[82, 103]

>  <energy_score>  (1022) 
657.9659643123389

>  <distance_score>  (1022) 
15.774134599172633

>  <path>  (1022) 
/opt/xchem-fragalysis-2/maxwin/BulkDock/SCRATCH/511018/C6236-P103/C6236-P103.minimised.mol

>  <scratch_subdir>  (1022) 
/opt/xchem-fragalysis-2/maxwin/BulkDock/SCRATCH/511018/C6236-P103

>  <fragmenstein_runtime>  (1022) 
26.36783194541931

>  <fragmenstein_outcome>  (1022) 
too moved

>  <fragmenstein_mode>  (1022) 
expansion

>  <fragmenstein_error>  (1022) 


$$$$
C6237-P82
     RDKit          3D

 37 39  0  0  0  0  0  0  0  0999 V2000
   -2.3867  -13.5894   20.5895 O   0  0  0  0  0  0  0  0  0  0  0  0
   -1.9481  -14.6710   20.8801 C   0  0  0  0  0  0  0  0  0  0  0  0
   -1.5167  -15.8312   19.8606 N   0  0  0  0  0  0  0  0  0  0  0  0
   -1.4377  -15.8469   18.3134 C   0  0  0  0  0  0  0  0  0  0  0  0
   -0.0582  -15.1381   17.4227 C   0  0  0  0  0  0  0  0  0  0  0  0
    0.0894  -13.5066   16.9566 C   0  0  0  0  0  0  0  0  0  0  0  0
    1.2004  -12.5326   16.7135 N   0  0  0  0  0  0  0  0  0  0  0  0
    0.8347  -11.2144   16.3784 C   0  0  0  0  0  0  0  0  0  0  0  0
    1.8389  -10.3950   16.1884 N   0  0  0  0  0  0  0  0  0  0  0  0
    2.9451  -11.1572   16.4016 C   0  0  0  0  0  0  0  0  0  0  0  0
    4.2899  -10.7322   16.3357 C   0  0  0  0  0  0  0  0  0  0  0  0
    5.3020  -11.6489   16.5965 C   0  0  0  0  0  0  0  0  0  0  0  0
    4.9661  -12.9642   16.9150 C   0  0  0  0  0  0  0  0  0  0  0  0
    3.6240  -13.4126   16.9739 C   0  0  0  0  0  0  0  0  0  0  0  0
    2.5959  -12.4940   16.7142 C   0  0  0  0  0  0  0  0  0  0  0  0
   -1.5852  -14.9527   22.8607 C   0  0  0  0  0  0  0  0  0  0  0  0
   -0.7398  -14.4079   23.8654 C   0  0  0  0  0  0  0  0  0  0  0  0
   -1.3966  -14.0339   25.1612 C   0  0  0  0  0  0  0  0  0  0  0  0
   -2.2371  -14.8363   25.7580 C   0  0  0  0  0  0  0  0  0  0  0  0
   -2.6806  -15.7238   24.8854 C   0  0  0  0  0  0  0  0  0  0  0  0
   -2.8285  -15.4011   23.5902 N   0  0  0  0  0  0  0  0  0  0  0  0
   -1.2633  -16.6590   20.3949 H   0  0  0  0  0  0  0  0  0  0  0  0
   -1.4754  -16.9016   18.0247 H   0  0  0  0  0  0  0  0  0  0  0  0
   -2.3231  -15.3191   17.9480 H   0  0  0  0  0  0  0  0  0  0  0  0
    0.8814  -15.5187   17.8292 H   0  0  0  0  0  0  0  0  0  0  0  0
   -0.1476  -15.6519   16.4530 H   0  0  0  0  0  0  0  0  0  0  0  0
   -0.6243  -12.9481   17.5702 H   0  0  0  0  0  0  0  0  0  0  0  0
   -0.3846  -13.5261   15.9613 H   0  0  0  0  0  0  0  0  0  0  0  0
   -0.2091  -10.9367   16.2984 H   0  0  0  0  0  0  0  0  0  0  0  0
    4.5117   -9.7014   16.0850 H   0  0  0  0  0  0  0  0  0  0  0  0
    6.3431  -11.3436   16.5504 H   0  0  0  0  0  0  0  0  0  0  0  0
    5.7597  -13.6781   17.1311 H   0  0  0  0  0  0  0  0  0  0  0  0
    3.4047  -14.4406   17.2470 H   0  0  0  0  0  0  0  0  0  0  0  0
    0.0892  -13.9528   23.4243 H   0  0  0  0  0  0  0  0  0  0  0  0
   -1.6033  -13.0194   25.4510 H   0  0  0  0  0  0  0  0  0  0  0  0
   -2.1803  -14.9584   26.8412 H   0  0  0  0  0  0  0  0  0  0  0  0
   -2.8171  -16.7059   25.2883 H   0  0  0  0  0  0  0  0  0  0  0  0
  1  2  2  0
  2  3  1  0
  3  4  1  0
  4  5  1  0
  5  6  1  0
  6  7  1  0
  7  8  1  0
  8  9  2  0
  9 10  1  0
 10 11  2  0
 11 12  1  0
 12 13  2  0
 13 14  1  0
 14 15  2  0
  2 16  1  0
 16 17  2  0
 17 18  1  0
 18 19  2  0
 19 20  1  0
 20 21  2  0
 15  7  1  0
 21 16  1  0
 15 10  1  0
  3 22  1  0
  4 23  1  0
  4 24  1  0
  5 25  1  0
  5 26  1  0
  6 27  1  0
  6 28  1  0
  8 29  1  0
 11 30  1  0
 12 31  1  0
 13 32  1  0
 14 33  1  0
 17 34  1  0
 18 35  1  0
 19 36  1  0
 20 37  1  0
M  END
>  <Energy>  (1023) 
310.6611362714151

>  <compound_id>  (1023) 
6237

>  <target_id>  (1023) 
1

>  <reference_id>  (1023) 
82

>  <inspiration_ids>  (1023) 
[82, 103]

>  <energy_score>  (1023) 
250.00904086737114

>  <distance_score>  (1023) 
15.888513032764827

>  <path>  (1023) 
/opt/xchem-fragalysis-2/maxwin/BulkDock/SCRATCH/511018/C6237-P82/C6237-P82.minimised.mol

>  <scratch_subdir>  (1023) 
/opt/xchem-fragalysis-2/maxwin/BulkDock/SCRATCH/511018/C6237-P82

>  <fragmenstein_runtime>  (1023) 
20.45731830596924

>  <fragmenstein_outcome>  (1023) 
too moved

>  <fragmenstein_mode>  (1023) 
expansion

>  <fragmenstein_error>  (1023) 


$$$$
C6237-P103
     RDKit          3D

 37 39  0  0  0  0  0  0  0  0999 V2000
   -5.0742  -13.6230   23.4639 O   0  0  0  0  0  0  0  0  0  0  0  0
   -5.0982  -14.7745   23.7311 C   0  0  0  0  0  0  0  0  0  0  0  0
   -3.2984  -15.5399   24.0923 N   0  0  0  0  0  0  0  0  0  0  0  0
   -1.3854  -14.7100   24.2377 C   0  0  0  0  0  0  0  0  0  0  0  0
    0.6176  -13.9822   23.8839 C   0  0  0  0  0  0  0  0  0  0  0  0
    2.2411  -12.4825   23.7322 C   0  0  0  0  0  0  0  0  0  0  0  0
    3.5711  -11.4280   22.6099 N   0  0  0  0  0  0  0  0  0  0  0  0
    3.4662   -9.8035   22.0008 C   0  0  0  0  0  0  0  0  0  0  0  0
    4.3600   -9.3954   21.1218 N   0  0  0  0  0  0  0  0  0  0  0  0
    5.4781   -9.8731   21.5731 C   0  0  0  0  0  0  0  0  0  0  0  0
    6.7523   -9.3952   21.1818 C   0  0  0  0  0  0  0  0  0  0  0  0
    7.8652   -9.6652   21.9563 C   0  0  0  0  0  0  0  0  0  0  0  0
    7.6944  -10.4025   23.1119 C   0  0  0  0  0  0  0  0  0  0  0  0
    6.4318  -10.9340   23.4731 C   0  0  0  0  0  0  0  0  0  0  0  0
    5.2238  -10.7376   22.6539 C   0  0  0  0  0  0  0  0  0  0  0  0
   -7.1161  -15.3552   23.8923 C   0  0  0  0  0  0  0  0  0  0  0  0
   -7.9738  -15.0840   25.0644 C   0  0  0  0  0  0  0  0  0  0  0  0
   -9.2782  -15.6105   25.3912 C   0  0  0  0  0  0  0  0  0  0  0  0
   -9.8537  -16.5668   24.5919 C   0  0  0  0  0  0  0  0  0  0  0  0
   -9.0553  -17.0257   23.5815 C   0  0  0  0  0  0  0  0  0  0  0  0
   -7.7935  -16.5404   23.3299 N   0  0  0  0  0  0  0  0  0  0  0  0
   -3.4132  -16.4732   24.3896 H   0  0  0  0  0  0  0  0  0  0  0  0
   -1.3787  -14.7715   23.1673 H   0  0  0  0  0  0  0  0  0  0  0  0
   -1.6252  -14.0758   25.1091 H   0  0  0  0  0  0  0  0  0  0  0  0
    0.7133  -13.9469   24.9920 H   0  0  0  0  0  0  0  0  0  0  0  0
    1.2314  -14.7054   23.3758 H   0  0  0  0  0  0  0  0  0  0  0  0
    1.6201  -11.8044   23.1830 H   0  0  0  0  0  0  0  0  0  0  0  0
    2.9708  -13.2511   23.4698 H   0  0  0  0  0  0  0  0  0  0  0  0
    2.5035   -9.3402   21.8272 H   0  0  0  0  0  0  0  0  0  0  0  0
    6.8201   -8.7384   20.3213 H   0  0  0  0  0  0  0  0  0  0  0  0
    8.8403   -9.2767   21.6813 H   0  0  0  0  0  0  0  0  0  0  0  0
    8.5564  -10.6168   23.7420 H   0  0  0  0  0  0  0  0  0  0  0  0
    6.4235  -11.5880   24.3426 H   0  0  0  0  0  0  0  0  0  0  0  0
   -7.5904  -14.3896   25.8076 H   0  0  0  0  0  0  0  0  0  0  0  0
   -9.7918  -15.2334   26.2722 H   0  0  0  0  0  0  0  0  0  0  0  0
  -10.8370  -16.9773   24.7751 H   0  0  0  0  0  0  0  0  0  0  0  0
   -9.3603  -17.8409   22.9307 H   0  0  0  0  0  0  0  0  0  0  0  0
  1  2  2  0
  2  3  1  0
  3  4  1  0
  4  5  1  0
  5  6  1  0
  6  7  1  0
  7  8  1  0
  8  9  2  0
  9 10  1  0
 10 11  2  0
 11 12  1  0
 12 13  2  0
 13 14  1  0
 14 15  2  0
  2 16  1  0
 16 17  2  0
 17 18  1  0
 18 19  2  0
 19 20  1  0
 20 21  2  0
 15  7  1  0
 21 16  1  0
 15 10  1  0
  3 22  1  0
  4 23  1  0
  4 24  1  0
  5 25  1  0
  5 26  1  0
  6 27  1  0
  6 28  1  0
  8 29  1  0
 11 30  1  0
 12 31  1  0
 13 32  1  0
 14 33  1  0
 17 34  1  0
 18 35  1  0
 19 36  1  0
 20 37  1  0
M  END
>  <Energy>  (1024) 
1127.8086707272187

>  <compound_id>  (1024) 
6237

>  <target_id>  (1024) 
1

>  <reference_id>  (1024) 
103

>  <inspiration_ids>  (1024) 
[82, 103]

>  <energy_score>  (1024) 
1067.1565753231803

>  <distance_score>  (1024) 
13.33301562763067

>  <path>  (1024) 
/opt/xchem-fragalysis-2/maxwin/BulkDock/SCRATCH/511018/C6237-P103/C6237-P103.minimised.mol

>  <scratch_subdir>  (1024) 
/opt/xchem-fragalysis-2/maxwin/BulkDock/SCRATCH/511018/C6237-P103

>  <fragmenstein_runtime>  (1024) 
26.792805194854736

>  <fragmenstein_outcome>  (1024) 
too moved

>  <fragmenstein_mode>  (1024) 
expansion

>  <fragmenstein_error>  (1024) 


$$$$
C6238-P82
     RDKit          3D

 39 41  0  0  0  0  0  0  0  0999 V2000
   -4.0113  -21.6589   25.0979 N   0  0  0  0  0  0  0  0  0  0  0  0
   -3.1679  -20.8578   25.8532 C   0  0  0  0  0  0  0  0  0  0  0  0
   -2.5916  -21.2714   26.9668 C   0  0  0  0  0  0  0  0  0  0  0  0
   -1.7481  -20.2728   27.3589 C   0  0  0  0  0  0  0  0  0  0  0  0
   -1.5672  -18.5835   26.7762 C   0  0  0  0  0  0  0  0  0  0  0  0
   -2.2729  -18.1065   25.7552 C   0  0  0  0  0  0  0  0  0  0  0  0
   -2.6440  -16.2894   24.9697 C   0  0  0  0  0  0  0  0  0  0  0  0
   -3.6585  -15.7565   24.9356 O   0  0  0  0  0  0  0  0  0  0  0  0
   -1.4405  -15.8621   24.6166 N   0  0  0  0  0  0  0  0  0  0  0  0
   -0.9582  -14.5792   24.1792 C   0  0  0  0  0  0  0  0  0  0  0  0
    0.8236  -14.1165   23.8218 C   0  0  0  0  0  0  0  0  0  0  0  0
    2.3775  -12.7504   23.6378 C   0  0  0  0  0  0  0  0  0  0  0  0
    3.0604  -11.8851   22.1544 N   0  0  0  0  0  0  0  0  0  0  0  0
    2.6628  -10.6727   21.5435 C   0  0  0  0  0  0  0  0  0  0  0  0
    3.6743   -9.8886   21.2282 N   0  0  0  0  0  0  0  0  0  0  0  0
    4.5027  -10.8075   20.7255 C   0  0  0  0  0  0  0  0  0  0  0  0
    5.5966  -10.5923   19.8641 C   0  0  0  0  0  0  0  0  0  0  0  0
    6.1042  -11.6778   19.1630 C   0  0  0  0  0  0  0  0  0  0  0  0
    5.4951  -12.9249   19.3032 C   0  0  0  0  0  0  0  0  0  0  0  0
    4.4283  -13.1537   20.2071 C   0  0  0  0  0  0  0  0  0  0  0  0
    3.9982  -12.1018   21.0393 C   0  0  0  0  0  0  0  0  0  0  0  0
   -2.9029  -19.5736   25.3930 N   0  0  0  0  0  0  0  0  0  0  0  0
   -3.5541  -22.5165   24.8148 H   0  0  0  0  0  0  0  0  0  0  0  0
   -4.3016  -21.1043   24.2987 H   0  0  0  0  0  0  0  0  0  0  0  0
   -2.6886  -22.2418   27.4138 H   0  0  0  0  0  0  0  0  0  0  0  0
   -1.1220  -20.5578   28.2170 H   0  0  0  0  0  0  0  0  0  0  0  0
   -0.8556  -17.9603   27.2944 H   0  0  0  0  0  0  0  0  0  0  0  0
   -0.8345  -16.5842   24.6943 H   0  0  0  0  0  0  0  0  0  0  0  0
   -1.2979  -14.8057   23.1643 H   0  0  0  0  0  0  0  0  0  0  0  0
   -1.2910  -13.9369   25.0156 H   0  0  0  0  0  0  0  0  0  0  0  0
    0.1427  -13.9679   22.9140 H   0  0  0  0  0  0  0  0  0  0  0  0
    1.4602  -14.8521   23.3649 H   0  0  0  0  0  0  0  0  0  0  0  0
    2.0870  -11.8957   24.1812 H   0  0  0  0  0  0  0  0  0  0  0  0
    3.2660  -13.2983   23.9051 H   0  0  0  0  0  0  0  0  0  0  0  0
    1.6214  -10.4308   21.3552 H   0  0  0  0  0  0  0  0  0  0  0  0
    5.9524   -9.5855   19.6836 H   0  0  0  0  0  0  0  0  0  0  0  0
    6.9176  -11.5436   18.4551 H   0  0  0  0  0  0  0  0  0  0  0  0
    5.8425  -13.7555   18.6889 H   0  0  0  0  0  0  0  0  0  0  0  0
    3.9507  -14.1234   20.2603 H   0  0  0  0  0  0  0  0  0  0  0  0
  1  2  1  0
  2  3  2  0
  3  4  1  0
  4  5  2  0
  5  6  1  0
  6  7  1  0
  7  8  2  0
  7  9  1  0
  9 10  1  0
 10 11  1  0
 11 12  1  0
 12 13  1  0
 13 14  1  0
 14 15  2  0
 15 16  1  0
 16 17  2  0
 17 18  1  0
 18 19  2  0
 19 20  1  0
 20 21  2  0
  6 22  2  0
 22  2  1  0
 21 13  1  0
 21 16  1  0
  1 23  1  0
  1 24  1  0
  3 25  1  0
  4 26  1  0
  5 27  1  0
  9 28  1  0
 10 29  1  0
 10 30  1  0
 11 31  1  0
 11 32  1  0
 12 33  1  0
 12 34  1  0
 14 35  1  0
 17 36  1  0
 18 37  1  0
 19 38  1  0
 20 39  1  0
M  END
>  <Energy>  (1025) 
504.80317440759649

>  <compound_id>  (1025) 
6238

>  <target_id>  (1025) 
1

>  <reference_id>  (1025) 
82

>  <inspiration_ids>  (1025) 
[82, 103]

>  <energy_score>  (1025) 
487.07990871873585

>  <distance_score>  (1025) 
14.021695280834166

>  <path>  (1025) 
/opt/xchem-fragalysis-2/maxwin/BulkDock/SCRATCH/511018/C6238-P82/C6238-P82.minimised.mol

>  <scratch_subdir>  (1025) 
/opt/xchem-fragalysis-2/maxwin/BulkDock/SCRATCH/511018/C6238-P82

>  <fragmenstein_runtime>  (1025) 
24.056469917297363

>  <fragmenstein_outcome>  (1025) 
too moved

>  <fragmenstein_mode>  (1025) 
expansion

>  <fragmenstein_error>  (1025) 


$$$$
C6238-P103
     RDKit          3D

 39 41  0  0  0  0  0  0  0  0999 V2000
   -1.5083  -22.3707   29.1617 N   0  0  0  0  0  0  0  0  0  0  0  0
   -2.1333  -21.6874   28.1235 C   0  0  0  0  0  0  0  0  0  0  0  0
   -3.3423  -22.1062   27.6519 C   0  0  0  0  0  0  0  0  0  0  0  0
   -3.8114  -21.4211   26.5678 C   0  0  0  0  0  0  0  0  0  0  0  0
   -3.0755  -20.3079   26.0740 C   0  0  0  0  0  0  0  0  0  0  0  0
   -2.0268  -19.6235   26.7438 C   0  0  0  0  0  0  0  0  0  0  0  0
   -0.3908  -18.5252   26.3289 C   0  0  0  0  0  0  0  0  0  0  0  0
   -0.2057  -17.7354   27.2114 O   0  0  0  0  0  0  0  0  0  0  0  0
    0.8329  -18.7507   24.8591 N   0  0  0  0  0  0  0  0  0  0  0  0
    2.6066  -17.8251   24.4391 C   0  0  0  0  0  0  0  0  0  0  0  0
    3.4778  -16.1475   23.3453 C   0  0  0  0  0  0  0  0  0  0  0  0
    3.3256  -14.7806   21.7657 C   0  0  0  0  0  0  0  0  0  0  0  0
    4.0403  -13.5315   20.7018 N   0  0  0  0  0  0  0  0  0  0  0  0
    3.7593  -12.1454   20.9029 C   0  0  0  0  0  0  0  0  0  0  0  0
    4.4718  -11.3167   20.1806 N   0  0  0  0  0  0  0  0  0  0  0  0
    5.2965  -12.1159   19.4605 C   0  0  0  0  0  0  0  0  0  0  0  0
    6.2994  -11.6809   18.5689 C   0  0  0  0  0  0  0  0  0  0  0  0
    7.0893  -12.6252   17.9293 C   0  0  0  0  0  0  0  0  0  0  0  0
    6.8595  -13.9783   18.1693 C   0  0  0  0  0  0  0  0  0  0  0  0
    5.8494  -14.4351   19.0499 C   0  0  0  0  0  0  0  0  0  0  0  0
    5.0634  -13.4908   19.7247 C   0  0  0  0  0  0  0  0  0  0  0  0
   -1.4876  -20.5905   27.6259 N   0  0  0  0  0  0  0  0  0  0  0  0
   -0.6196  -21.9230   29.3559 H   0  0  0  0  0  0  0  0  0  0  0  0
   -1.4069  -23.3586   28.9624 H   0  0  0  0  0  0  0  0  0  0  0  0
   -3.8332  -22.9886   28.0318 H   0  0  0  0  0  0  0  0  0  0  0  0
   -4.6725  -21.7862   26.0146 H   0  0  0  0  0  0  0  0  0  0  0  0
   -3.3766  -20.1105   25.0673 H   0  0  0  0  0  0  0  0  0  0  0  0
    0.5234  -19.5387   24.2687 H   0  0  0  0  0  0  0  0  0  0  0  0
    3.0272  -17.7953   25.4625 H   0  0  0  0  0  0  0  0  0  0  0  0
    3.0377  -18.7518   24.0420 H   0  0  0  0  0  0  0  0  0  0  0  0
    2.8269  -15.3161   23.5892 H   0  0  0  0  0  0  0  0  0  0  0  0
    4.3177  -15.7914   23.9936 H   0  0  0  0  0  0  0  0  0  0  0  0
    3.0537  -14.0091   22.5156 H   0  0  0  0  0  0  0  0  0  0  0  0
    2.5882  -14.8533   20.9232 H   0  0  0  0  0  0  0  0  0  0  0  0
    3.0680  -11.8191   21.6676 H   0  0  0  0  0  0  0  0  0  0  0  0
    6.4435  -10.6207   18.4018 H   0  0  0  0  0  0  0  0  0  0  0  0
    7.8688  -12.3130   17.2398 H   0  0  0  0  0  0  0  0  0  0  0  0
    7.4707  -14.7169   17.6511 H   0  0  0  0  0  0  0  0  0  0  0  0
    5.6947  -15.5016   19.1826 H   0  0  0  0  0  0  0  0  0  0  0  0
  1  2  1  0
  2  3  2  0
  3  4  1  0
  4  5  2  0
  5  6  1  0
  6  7  1  0
  7  8  2  0
  7  9  1  0
  9 10  1  0
 10 11  1  0
 11 12  1  0
 12 13  1  0
 13 14  1  0
 14 15  2  0
 15 16  1  0
 16 17  2  0
 17 18  1  0
 18 19  2  0
 19 20  1  0
 20 21  2  0
  6 22  2  0
 22  2  1  0
 21 13  1  0
 21 16  1  0
  1 23  1  0
  1 24  1  0
  3 25  1  0
  4 26  1  0
  5 27  1  0
  9 28  1  0
 10 29  1  0
 10 30  1  0
 11 31  1  0
 11 32  1  0
 12 33  1  0
 12 34  1  0
 14 35  1  0
 17 36  1  0
 18 37  1  0
 19 38  1  0
 20 39  1  0
M  END
>  <Energy>  (1026) 
658.2961602266023

>  <compound_id>  (1026) 
6238

>  <target_id>  (1026) 
1

>  <reference_id>  (1026) 
103

>  <inspiration_ids>  (1026) 
[82, 103]

>  <energy_score>  (1026) 
640.5728945377392

>  <distance_score>  (1026) 
13.605308577083315

>  <path>  (1026) 
/opt/xchem-fragalysis-2/maxwin/BulkDock/SCRATCH/511018/C6238-P103/C6238-P103.minimised.mol

>  <scratch_subdir>  (1026) 
/opt/xchem-fragalysis-2/maxwin/BulkDock/SCRATCH/511018/C6238-P103

>  <fragmenstein_runtime>  (1026) 
30.914204359054565

>  <fragmenstein_outcome>  (1026) 
too moved

>  <fragmenstein_mode>  (1026) 
expansion

>  <fragmenstein_error>  (1026) 


$$$$
C6239-P82
     RDKit          3D

 40 42  0  0  0  0  0  0  0  0999 V2000
   -1.8512  -22.4089   28.8187 C   0  0  0  0  0  0  0  0  0  0  0  0
   -2.5734  -21.7559   27.6786 C   0  0  0  0  0  0  0  0  0  0  0  0
   -3.6496  -22.3855   27.0964 C   0  0  0  0  0  0  0  0  0  0  0  0
   -4.2049  -21.7856   25.9895 C   0  0  0  0  0  0  0  0  0  0  0  0
   -3.7135  -20.5389   25.5578 C   0  0  0  0  0  0  0  0  0  0  0  0
   -2.7547  -19.7781   26.3049 C   0  0  0  0  0  0  0  0  0  0  0  0
   -1.8828  -18.0935   26.1461 C   0  0  0  0  0  0  0  0  0  0  0  0
   -0.8426  -18.1299   26.7381 O   0  0  0  0  0  0  0  0  0  0  0  0
   -2.3630  -16.6535   25.1516 N   0  0  0  0  0  0  0  0  0  0  0  0
   -1.4124  -15.0537   24.6957 C   0  0  0  0  0  0  0  0  0  0  0  0
    0.4222  -14.2989   24.1249 C   0  0  0  0  0  0  0  0  0  0  0  0
    2.1594  -13.2105   24.0434 C   0  0  0  0  0  0  0  0  0  0  0  0
    3.6297  -13.6418   23.4368 N   0  0  0  0  0  0  0  0  0  0  0  0
    4.7105  -13.8333   24.3082 C   0  0  0  0  0  0  0  0  0  0  0  0
    5.7711  -13.1012   24.0172 N   0  0  0  0  0  0  0  0  0  0  0  0
    5.6081  -12.7731   22.7117 C   0  0  0  0  0  0  0  0  0  0  0  0
    6.5363  -12.1550   21.8417 C   0  0  0  0  0  0  0  0  0  0  0  0
    6.3450  -12.2565   20.4669 C   0  0  0  0  0  0  0  0  0  0  0  0
    5.2771  -13.0120   19.9975 C   0  0  0  0  0  0  0  0  0  0  0  0
    4.2987  -13.5528   20.8758 C   0  0  0  0  0  0  0  0  0  0  0  0
    4.3797  -13.2859   22.2591 C   0  0  0  0  0  0  0  0  0  0  0  0
   -2.1030  -20.5471   27.2541 N   0  0  0  0  0  0  0  0  0  0  0  0
   -1.3753  -23.3352   28.4828 H   0  0  0  0  0  0  0  0  0  0  0  0
   -1.0750  -21.7500   29.2186 H   0  0  0  0  0  0  0  0  0  0  0  0
   -2.5504  -22.6360   29.6299 H   0  0  0  0  0  0  0  0  0  0  0  0
   -3.9901  -23.3461   27.4496 H   0  0  0  0  0  0  0  0  0  0  0  0
   -5.0035  -22.2743   25.4378 H   0  0  0  0  0  0  0  0  0  0  0  0
   -4.1924  -20.1647   24.6620 H   0  0  0  0  0  0  0  0  0  0  0  0
   -3.2621  -16.7844   24.8244 H   0  0  0  0  0  0  0  0  0  0  0  0
   -1.7749  -15.2014   23.6999 H   0  0  0  0  0  0  0  0  0  0  0  0
   -1.9167  -14.3398   25.3598 H   0  0  0  0  0  0  0  0  0  0  0  0
   -0.0772  -13.9173   23.2338 H   0  0  0  0  0  0  0  0  0  0  0  0
    0.5754  -13.9241   25.1362 H   0  0  0  0  0  0  0  0  0  0  0  0
    2.2993  -13.1734   25.0901 H   0  0  0  0  0  0  0  0  0  0  0  0
    2.0714  -12.1656   23.7224 H   0  0  0  0  0  0  0  0  0  0  0  0
    4.5680  -14.3958   25.2154 H   0  0  0  0  0  0  0  0  0  0  0  0
    7.4455  -11.7263   22.2484 H   0  0  0  0  0  0  0  0  0  0  0  0
    7.0764  -11.8458   19.7779 H   0  0  0  0  0  0  0  0  0  0  0  0
    5.1711  -13.1875   18.9280 H   0  0  0  0  0  0  0  0  0  0  0  0
    3.4770  -14.1333   20.4681 H   0  0  0  0  0  0  0  0  0  0  0  0
  1  2  1  0
  2  3  2  0
  3  4  1  0
  4  5  2  0
  5  6  1  0
  6  7  1  0
  7  8  2  0
  7  9  1  0
  9 10  1  0
 10 11  1  0
 11 12  1  0
 12 13  1  0
 13 14  1  0
 14 15  2  0
 15 16  1  0
 16 17  2  0
 17 18  1  0
 18 19  2  0
 19 20  1  0
 20 21  2  0
  6 22  2  0
 22  2  1  0
 21 13  1  0
 21 16  1  0
  1 23  1  0
  1 24  1  0
  1 25  1  0
  3 26  1  0
  4 27  1  0
  5 28  1  0
  9 29  1  0
 10 30  1  0
 10 31  1  0
 11 32  1  0
 11 33  1  0
 12 34  1  0
 12 35  1  0
 14 36  1  0
 17 37  1  0
 18 38  1  0
 19 39  1  0
 20 40  1  0
M  END
>  <Energy>  (1027) 
526.70510106316101

>  <compound_id>  (1027) 
6239

>  <target_id>  (1027) 
1

>  <reference_id>  (1027) 
82

>  <inspiration_ids>  (1027) 
[82, 103]

>  <energy_score>  (1027) 
467.1975068379727

>  <distance_score>  (1027) 
14.391418863719903

>  <path>  (1027) 
/opt/xchem-fragalysis-2/maxwin/BulkDock/SCRATCH/511018/C6239-P82/C6239-P82.minimised.mol

>  <scratch_subdir>  (1027) 
/opt/xchem-fragalysis-2/maxwin/BulkDock/SCRATCH/511018/C6239-P82

>  <fragmenstein_runtime>  (1027) 
17.933696269989014

>  <fragmenstein_outcome>  (1027) 
too moved

>  <fragmenstein_mode>  (1027) 
expansion

>  <fragmenstein_error>  (1027) 


$$$$
C6239-P103
     RDKit          3D

 40 42  0  0  0  0  0  0  0  0999 V2000
   -7.4599  -20.8661   33.3904 C   0  0  0  0  0  0  0  0  0  0  0  0
   -7.6185  -21.1772   31.9602 C   0  0  0  0  0  0  0  0  0  0  0  0
   -9.5799  -20.9837   31.5326 C   0  0  0  0  0  0  0  0  0  0  0  0
  -10.0071  -20.4796   29.7176 C   0  0  0  0  0  0  0  0  0  0  0  0
   -8.5680  -19.4500   28.6053 C   0  0  0  0  0  0  0  0  0  0  0  0
   -6.9933  -18.9992   29.4995 C   0  0  0  0  0  0  0  0  0  0  0  0
   -5.8272  -18.1670   28.5927 C   0  0  0  0  0  0  0  0  0  0  0  0
   -5.6267  -18.7710   27.5863 O   0  0  0  0  0  0  0  0  0  0  0  0
   -4.7079  -16.6139   28.9658 N   0  0  0  0  0  0  0  0  0  0  0  0
   -3.1010  -15.8784   27.9945 C   0  0  0  0  0  0  0  0  0  0  0  0
   -1.2086  -15.0059   27.7945 C   0  0  0  0  0  0  0  0  0  0  0  0
    0.4514  -13.8768   26.8460 C   0  0  0  0  0  0  0  0  0  0  0  0
    1.9090  -13.4558   25.6503 N   0  0  0  0  0  0  0  0  0  0  0  0
    1.9537  -12.6018   24.4538 C   0  0  0  0  0  0  0  0  0  0  0  0
    2.7533  -12.5479   23.4431 N   0  0  0  0  0  0  0  0  0  0  0  0
    3.7166  -13.4091   23.6779 C   0  0  0  0  0  0  0  0  0  0  0  0
    4.8533  -13.5707   22.8520 C   0  0  0  0  0  0  0  0  0  0  0  0
    5.8759  -14.3862   23.2697 C   0  0  0  0  0  0  0  0  0  0  0  0
    5.6935  -15.0701   24.4559 C   0  0  0  0  0  0  0  0  0  0  0  0
    4.5390  -14.8970   25.2844 C   0  0  0  0  0  0  0  0  0  0  0  0
    3.5177  -13.9849   24.9693 C   0  0  0  0  0  0  0  0  0  0  0  0
   -6.4288  -20.1178   30.8971 N   0  0  0  0  0  0  0  0  0  0  0  0
   -6.4038  -20.6046   33.4291 H   0  0  0  0  0  0  0  0  0  0  0  0
   -7.8866  -21.7941   33.7367 H   0  0  0  0  0  0  0  0  0  0  0  0
   -7.9985  -19.9874   33.7435 H   0  0  0  0  0  0  0  0  0  0  0  0
  -10.3335  -21.5877   32.0545 H   0  0  0  0  0  0  0  0  0  0  0  0
  -10.8050  -21.1101   29.2631 H   0  0  0  0  0  0  0  0  0  0  0  0
   -8.6643  -19.3096   27.5262 H   0  0  0  0  0  0  0  0  0  0  0  0
   -5.0500  -16.1609   29.8016 H   0  0  0  0  0  0  0  0  0  0  0  0
   -3.0429  -15.3687   28.9907 H   0  0  0  0  0  0  0  0  0  0  0  0
   -2.8076  -16.8553   27.5880 H   0  0  0  0  0  0  0  0  0  0  0  0
   -1.8327  -14.3113   28.2963 H   0  0  0  0  0  0  0  0  0  0  0  0
   -0.7283  -15.4952   28.6599 H   0  0  0  0  0  0  0  0  0  0  0  0
    1.1889  -14.6390   26.9322 H   0  0  0  0  0  0  0  0  0  0  0  0
    0.0317  -13.3382   26.0390 H   0  0  0  0  0  0  0  0  0  0  0  0
    1.5138  -11.7220   24.7375 H   0  0  0  0  0  0  0  0  0  0  0  0
    4.9025  -13.0331   21.9127 H   0  0  0  0  0  0  0  0  0  0  0  0
    6.7593  -14.5390   22.6606 H   0  0  0  0  0  0  0  0  0  0  0  0
    6.4421  -15.8041   24.7528 H   0  0  0  0  0  0  0  0  0  0  0  0
    4.3637  -15.5716   26.1091 H   0  0  0  0  0  0  0  0  0  0  0  0
  1  2  1  0
  2  3  2  0
  3  4  1  0
  4  5  2  0
  5  6  1  0
  6  7  1  0
  7  8  2  0
  7  9  1  0
  9 10  1  0
 10 11  1  0
 11 12  1  0
 12 13  1  0
 13 14  1  0
 14 15  2  0
 15 16  1  0
 16 17  2  0
 17 18  1  0
 18 19  2  0
 19 20  1  0
 20 21  2  0
  6 22  2  0
 22  2  1  0
 21 13  1  0
 21 16  1  0
  1 23  1  0
  1 24  1  0
  1 25  1  0
  3 26  1  0
  4 27  1  0
  5 28  1  0
  9 29  1  0
 10 30  1  0
 10 31  1  0
 11 32  1  0
 11 33  1  0
 12 34  1  0
 12 35  1  0
 14 36  1  0
 17 37  1  0
 18 38  1  0
 19 39  1  0
 20 40  1  0
M  END
>  <Energy>  (1028) 
1500.6720285757767

>  <compound_id>  (1028) 
6239

>  <target_id>  (1028) 
1

>  <reference_id>  (1028) 
103

>  <inspiration_ids>  (1028) 
[82, 103]

>  <energy_score>  (1028) 
1441.1644343505993

>  <distance_score>  (1028) 
14.484772518423949

>  <path>  (1028) 
/opt/xchem-fragalysis-2/maxwin/BulkDock/SCRATCH/511018/C6239-P103/C6239-P103.minimised.mol

>  <scratch_subdir>  (1028) 
/opt/xchem-fragalysis-2/maxwin/BulkDock/SCRATCH/511018/C6239-P103

>  <fragmenstein_runtime>  (1028) 
27.7676203250885

>  <fragmenstein_outcome>  (1028) 
too moved

>  <fragmenstein_mode>  (1028) 
expansion

>  <fragmenstein_error>  (1028) 


$$$$
C6240-P82
     RDKit          3D

 45 47  0  0  0  0  0  0  0  0999 V2000
   -3.7897   -8.0903   23.4009 C   0  0  0  0  0  0  0  0  0  0  0  0
   -3.9934   -9.0051   24.5229 N   0  0  0  0  0  0  0  0  0  0  0  0
   -5.3319   -9.5753   24.6332 C   0  0  0  0  0  0  0  0  0  0  0  0
   -3.2912   -8.6794   25.6874 C   0  0  0  0  0  0  0  0  0  0  0  0
   -3.5989   -9.2691   26.9219 C   0  0  0  0  0  0  0  0  0  0  0  0
   -2.7981   -8.9910   28.0215 C   0  0  0  0  0  0  0  0  0  0  0  0
   -1.6944   -8.1427   27.8600 C   0  0  0  0  0  0  0  0  0  0  0  0
   -1.4033   -7.5711   26.6079 C   0  0  0  0  0  0  0  0  0  0  0  0
   -0.0077   -6.8512   26.3942 C   0  0  0  0  0  0  0  0  0  0  0  0
    0.5467   -6.6095   27.4332 O   0  0  0  0  0  0  0  0  0  0  0  0
    0.4424   -6.6790   25.0118 N   0  0  0  0  0  0  0  0  0  0  0  0
    1.7613   -6.2480   24.4594 C   0  0  0  0  0  0  0  0  0  0  0  0
    2.1342   -4.8785   23.7757 C   0  0  0  0  0  0  0  0  0  0  0  0
    3.6188   -4.9523   23.1570 C   0  0  0  0  0  0  0  0  0  0  0  0
    4.3318   -3.7684   22.6748 N   0  0  0  0  0  0  0  0  0  0  0  0
    5.4239   -3.2012   23.2984 C   0  0  0  0  0  0  0  0  0  0  0  0
    5.9969   -2.2628   22.5747 N   0  0  0  0  0  0  0  0  0  0  0  0
    5.2591   -2.2072   21.4252 C   0  0  0  0  0  0  0  0  0  0  0  0
    5.4010   -1.3441   20.3275 C   0  0  0  0  0  0  0  0  0  0  0  0
    4.5276   -1.4893   19.2472 C   0  0  0  0  0  0  0  0  0  0  0  0
    3.5596   -2.4928   19.2481 C   0  0  0  0  0  0  0  0  0  0  0  0
    3.4075   -3.3643   20.3334 C   0  0  0  0  0  0  0  0  0  0  0  0
    4.2510   -3.1747   21.4303 C   0  0  0  0  0  0  0  0  0  0  0  0
   -2.1996   -7.8474   25.5411 N   0  0  0  0  0  0  0  0  0  0  0  0
   -2.7330   -8.0255   23.1171 H   0  0  0  0  0  0  0  0  0  0  0  0
   -4.1649   -7.0878   23.6357 H   0  0  0  0  0  0  0  0  0  0  0  0
   -4.3199   -8.4468   22.5104 H   0  0  0  0  0  0  0  0  0  0  0  0
   -5.7747   -9.7314   23.6431 H   0  0  0  0  0  0  0  0  0  0  0  0
   -5.3055  -10.5594   25.1125 H   0  0  0  0  0  0  0  0  0  0  0  0
   -6.0001   -8.9122   25.1939 H   0  0  0  0  0  0  0  0  0  0  0  0
   -4.4305   -9.9518   27.0435 H   0  0  0  0  0  0  0  0  0  0  0  0
   -3.0039   -9.4429   28.9880 H   0  0  0  0  0  0  0  0  0  0  0  0
   -1.0336   -7.9571   28.7038 H   0  0  0  0  0  0  0  0  0  0  0  0
   -0.3221   -6.9128   24.3820 H   0  0  0  0  0  0  0  0  0  0  0  0
    1.9979   -7.0287   23.7288 H   0  0  0  0  0  0  0  0  0  0  0  0
    2.4611   -6.3613   25.2935 H   0  0  0  0  0  0  0  0  0  0  0  0
    1.4205   -4.6493   22.9775 H   0  0  0  0  0  0  0  0  0  0  0  0
    2.0821   -4.0714   24.5141 H   0  0  0  0  0  0  0  0  0  0  0  0
    3.5995   -5.6577   22.3162 H   0  0  0  0  0  0  0  0  0  0  0  0
    4.2697   -5.4036   23.9175 H   0  0  0  0  0  0  0  0  0  0  0  0
    5.7549   -3.5195   24.2791 H   0  0  0  0  0  0  0  0  0  0  0  0
    6.1749   -0.5889   20.3378 H   0  0  0  0  0  0  0  0  0  0  0  0
    4.6058   -0.8396   18.3804 H   0  0  0  0  0  0  0  0  0  0  0  0
    2.9017   -2.5984   18.3866 H   0  0  0  0  0  0  0  0  0  0  0  0
    2.6331   -4.1245   20.3295 H   0  0  0  0  0  0  0  0  0  0  0  0
  1  2  1  0
  2  3  1  0
  2  4  1  0
  4  5  2  0
  5  6  1  0
  6  7  2  0
  7  8  1  0
  8  9  1  0
  9 10  2  0
  9 11  1  0
 11 12  1  0
 12 13  1  0
 13 14  1  0
 14 15  1  0
 15 16  1  0
 16 17  2  0
 17 18  1  0
 18 19  2  0
 19 20  1  0
 20 21  2  0
 21 22  1  0
 22 23  2  0
  8 24  2  0
 24  4  1  0
 23 15  1  0
 23 18  1  0
  1 25  1  0
  1 26  1  0
  1 27  1  0
  3 28  1  0
  3 29  1  0
  3 30  1  0
  5 31  1  0
  6 32  1  0
  7 33  1  0
 11 34  1  0
 12 35  1  0
 12 36  1  0
 13 37  1  0
 13 38  1  0
 14 39  1  0
 14 40  1  0
 16 41  1  0
 19 42  1  0
 20 43  1  0
 21 44  1  0
 22 45  1  0
M  END
>  <Energy>  (1029) 
40.108147692702886

>  <compound_id>  (1029) 
6240

>  <target_id>  (1029) 
1

>  <reference_id>  (1029) 
82

>  <inspiration_ids>  (1029) 
[82, 103]

>  <energy_score>  (1029) 
-3.887211148792858

>  <distance_score>  (1029) 
14.881516272513354

>  <path>  (1029) 
/opt/xchem-fragalysis-2/maxwin/BulkDock/SCRATCH/511018/C6240-P82/C6240-P82.minimised.mol

>  <scratch_subdir>  (1029) 
/opt/xchem-fragalysis-2/maxwin/BulkDock/SCRATCH/511018/C6240-P82

>  <fragmenstein_runtime>  (1029) 
39.264580726623535

>  <fragmenstein_outcome>  (1029) 
too moved

>  <fragmenstein_mode>  (1029) 
expansion

>  <fragmenstein_error>  (1029) 


$$$$
C6240-P103
     RDKit          3D

 45 47  0  0  0  0  0  0  0  0999 V2000
    0.4062  -21.3979   31.1577 C   0  0  0  0  0  0  0  0  0  0  0  0
   -0.1863  -20.7716   32.3268 N   0  0  0  0  0  0  0  0  0  0  0  0
   -1.4715  -21.3382   32.7410 C   0  0  0  0  0  0  0  0  0  0  0  0
   -0.0948  -19.3625   32.3373 C   0  0  0  0  0  0  0  0  0  0  0  0
   -0.6840  -18.6511   33.3869 C   0  0  0  0  0  0  0  0  0  0  0  0
   -0.5797  -17.2677   33.4325 C   0  0  0  0  0  0  0  0  0  0  0  0
    0.1062  -16.6014   32.4206 C   0  0  0  0  0  0  0  0  0  0  0  0
    0.6720  -17.3319   31.3718 C   0  0  0  0  0  0  0  0  0  0  0  0
    0.9210  -16.5158   30.0133 C   0  0  0  0  0  0  0  0  0  0  0  0
    0.1107  -15.6546   29.8172 O   0  0  0  0  0  0  0  0  0  0  0  0
    2.1420  -16.8724   29.2709 N   0  0  0  0  0  0  0  0  0  0  0  0
    2.9898  -16.0691   27.8160 C   0  0  0  0  0  0  0  0  0  0  0  0
    3.8893  -14.4196   27.1682 C   0  0  0  0  0  0  0  0  0  0  0  0
    5.3072  -13.0349   27.5442 C   0  0  0  0  0  0  0  0  0  0  0  0
    5.9870  -11.6380   27.1070 N   0  0  0  0  0  0  0  0  0  0  0  0
    5.8236  -10.4484   27.8286 C   0  0  0  0  0  0  0  0  0  0  0  0
    6.3838   -9.4010   27.2559 N   0  0  0  0  0  0  0  0  0  0  0  0
    7.1665   -9.9033   26.2540 C   0  0  0  0  0  0  0  0  0  0  0  0
    7.9819   -9.1947   25.3399 C   0  0  0  0  0  0  0  0  0  0  0  0
    8.7488   -9.8998   24.4145 C   0  0  0  0  0  0  0  0  0  0  0  0
    8.7379  -11.2904   24.4463 C   0  0  0  0  0  0  0  0  0  0  0  0
    7.9208  -12.0117   25.3494 C   0  0  0  0  0  0  0  0  0  0  0  0
    7.0580  -11.3112   26.2095 C   0  0  0  0  0  0  0  0  0  0  0  0
    0.5932  -18.7047   31.3471 N   0  0  0  0  0  0  0  0  0  0  0  0
    0.3885  -22.4892   31.2594 H   0  0  0  0  0  0  0  0  0  0  0  0
   -0.1485  -21.1424   30.2498 H   0  0  0  0  0  0  0  0  0  0  0  0
    1.4585  -21.1241   31.0511 H   0  0  0  0  0  0  0  0  0  0  0  0
   -1.4954  -22.4183   32.5545 H   0  0  0  0  0  0  0  0  0  0  0  0
   -2.3070  -20.8907   32.1912 H   0  0  0  0  0  0  0  0  0  0  0  0
   -1.6363  -21.2184   33.8165 H   0  0  0  0  0  0  0  0  0  0  0  0
   -1.2040  -19.1529   34.1940 H   0  0  0  0  0  0  0  0  0  0  0  0
   -1.0517  -16.7070   34.2344 H   0  0  0  0  0  0  0  0  0  0  0  0
    0.0971  -15.5155   32.3906 H   0  0  0  0  0  0  0  0  0  0  0  0
    2.6369  -17.6118   29.7745 H   0  0  0  0  0  0  0  0  0  0  0  0
    3.9137  -16.5407   28.1026 H   0  0  0  0  0  0  0  0  0  0  0  0
    2.8032  -16.8526   27.0605 H   0  0  0  0  0  0  0  0  0  0  0  0
    4.1421  -14.6713   26.1225 H   0  0  0  0  0  0  0  0  0  0  0  0
    2.9510  -13.8920   27.1006 H   0  0  0  0  0  0  0  0  0  0  0  0
    6.2785  -13.3965   27.2262 H   0  0  0  0  0  0  0  0  0  0  0  0
    5.2309  -12.8210   28.6065 H   0  0  0  0  0  0  0  0  0  0  0  0
    5.2246  -10.4175   28.7311 H   0  0  0  0  0  0  0  0  0  0  0  0
    8.0140   -8.1114   25.3850 H   0  0  0  0  0  0  0  0  0  0  0  0
    9.3879   -9.3688   23.7155 H   0  0  0  0  0  0  0  0  0  0  0  0
    9.3879  -11.8458   23.7715 H   0  0  0  0  0  0  0  0  0  0  0  0
    8.0041  -13.0886   25.3883 H   0  0  0  0  0  0  0  0  0  0  0  0
  1  2  1  0
  2  3  1  0
  2  4  1  0
  4  5  2  0
  5  6  1  0
  6  7  2  0
  7  8  1  0
  8  9  1  0
  9 10  2  0
  9 11  1  0
 11 12  1  0
 12 13  1  0
 13 14  1  0
 14 15  1  0
 15 16  1  0
 16 17  2  0
 17 18  1  0
 18 19  2  0
 19 20  1  0
 20 21  2  0
 21 22  1  0
 22 23  2  0
  8 24  2  0
 24  4  1  0
 23 15  1  0
 23 18  1  0
  1 25  1  0
  1 26  1  0
  1 27  1  0
  3 28  1  0
  3 29  1  0
  3 30  1  0
  5 31  1  0
  6 32  1  0
  7 33  1  0
 11 34  1  0
 12 35  1  0
 12 36  1  0
 13 37  1  0
 13 38  1  0
 14 39  1  0
 14 40  1  0
 16 41  1  0
 19 42  1  0
 20 43  1  0
 21 44  1  0
 22 45  1  0
M  END
>  <Energy>  (1030) 
301.83129730902436

>  <compound_id>  (1030) 
6240

>  <target_id>  (1030) 
1

>  <reference_id>  (1030) 
103

>  <inspiration_ids>  (1030) 
[82, 103]

>  <energy_score>  (1030) 
257.83593846752444

>  <distance_score>  (1030) 
14.978281330315557

>  <path>  (1030) 
/opt/xchem-fragalysis-2/maxwin/BulkDock/SCRATCH/511018/C6240-P103/C6240-P103.minimised.mol

>  <scratch_subdir>  (1030) 
/opt/xchem-fragalysis-2/maxwin/BulkDock/SCRATCH/511018/C6240-P103

>  <fragmenstein_runtime>  (1030) 
29.763800144195557

>  <fragmenstein_outcome>  (1030) 
too moved

>  <fragmenstein_mode>  (1030) 
expansion

>  <fragmenstein_error>  (1030) 


$$$$
C6241-P82
     RDKit          3D

 37 39  0  0  0  0  0  0  0  0999 V2000
   -2.1037   -8.9651   22.0137 O   0  0  0  0  0  0  0  0  0  0  0  0
   -1.5636   -9.3619   21.0168 C   0  0  0  0  0  0  0  0  0  0  0  0
   -0.2701   -8.9923   20.4160 N   0  0  0  0  0  0  0  0  0  0  0  0
    0.7221   -7.9449   20.8028 C   0  0  0  0  0  0  0  0  0  0  0  0
    2.1213   -7.7796   20.0817 C   0  0  0  0  0  0  0  0  0  0  0  0
    3.2230   -7.0940   21.0058 C   0  0  0  0  0  0  0  0  0  0  0  0
    4.2650   -6.1893   20.4994 N   0  0  0  0  0  0  0  0  0  0  0  0
    4.0524   -4.8349   20.3307 C   0  0  0  0  0  0  0  0  0  0  0  0
    5.1460   -4.1225   20.4992 N   0  0  0  0  0  0  0  0  0  0  0  0
    6.1333   -5.0350   20.7513 C   0  0  0  0  0  0  0  0  0  0  0  0
    7.4814   -4.8129   21.0870 C   0  0  0  0  0  0  0  0  0  0  0  0
    8.3316   -5.9070   21.2598 C   0  0  0  0  0  0  0  0  0  0  0  0
    7.8370   -7.2025   21.1244 C   0  0  0  0  0  0  0  0  0  0  0  0
    6.4837   -7.4467   20.8343 C   0  0  0  0  0  0  0  0  0  0  0  0
    5.6414   -6.3394   20.6627 C   0  0  0  0  0  0  0  0  0  0  0  0
   -2.3858  -10.4759   20.2902 C   0  0  0  0  0  0  0  0  0  0  0  0
   -1.6285  -11.4636   19.7261 N   0  0  0  0  0  0  0  0  0  0  0  0
   -2.2674  -12.5557   19.2142 C   0  0  0  0  0  0  0  0  0  0  0  0
   -3.6380  -12.7203   19.1663 C   0  0  0  0  0  0  0  0  0  0  0  0
   -4.4146  -11.7184   19.7223 C   0  0  0  0  0  0  0  0  0  0  0  0
   -3.7975  -10.6030   20.3306 C   0  0  0  0  0  0  0  0  0  0  0  0
   -5.0299   -9.4540   21.2233 Br  0  0  0  0  0  0  0  0  0  0  0  0
   -0.1691   -9.4697   19.5256 H   0  0  0  0  0  0  0  0  0  0  0  0
    0.1852   -6.9926   20.7111 H   0  0  0  0  0  0  0  0  0  0  0  0
    0.8785   -8.0787   21.8761 H   0  0  0  0  0  0  0  0  0  0  0  0
    1.9810   -7.1891   19.1695 H   0  0  0  0  0  0  0  0  0  0  0  0
    2.4909   -8.7653   19.7766 H   0  0  0  0  0  0  0  0  0  0  0  0
    2.6964   -6.5018   21.7673 H   0  0  0  0  0  0  0  0  0  0  0  0
    3.7351   -7.8918   21.5580 H   0  0  0  0  0  0  0  0  0  0  0  0
    3.0625   -4.4296   20.1619 H   0  0  0  0  0  0  0  0  0  0  0  0
    7.8521   -3.8022   21.2123 H   0  0  0  0  0  0  0  0  0  0  0  0
    9.3795   -5.7418   21.5047 H   0  0  0  0  0  0  0  0  0  0  0  0
    8.5083   -8.0475   21.2716 H   0  0  0  0  0  0  0  0  0  0  0  0
    6.1047   -8.4624   20.7734 H   0  0  0  0  0  0  0  0  0  0  0  0
   -1.6089  -13.3147   18.7965 H   0  0  0  0  0  0  0  0  0  0  0  0
   -4.0821  -13.6012   18.7178 H   0  0  0  0  0  0  0  0  0  0  0  0
   -5.4969  -11.8255   19.7360 H   0  0  0  0  0  0  0  0  0  0  0  0
  1  2  2  0
  2  3  1  0
  3  4  1  0
  4  5  1  0
  5  6  1  0
  6  7  1  0
  7  8  1  0
  8  9  2  0
  9 10  1  0
 10 11  2  0
 11 12  1  0
 12 13  2  0
 13 14  1  0
 14 15  2  0
  2 16  1  0
 16 17  2  0
 17 18  1  0
 18 19  2  0
 19 20  1  0
 20 21  2  0
 21 22  1  0
 15  7  1  0
 21 16  1  0
 15 10  1  0
  3 23  1  0
  4 24  1  0
  4 25  1  0
  5 26  1  0
  5 27  1  0
  6 28  1  0
  6 29  1  0
  8 30  1  0
 11 31  1  0
 12 32  1  0
 13 33  1  0
 14 34  1  0
 18 35  1  0
 19 36  1  0
 20 37  1  0
M  END
>  <Energy>  (1031) 
92.86257829692228

>  <compound_id>  (1031) 
6241

>  <target_id>  (1031) 
1

>  <reference_id>  (1031) 
82

>  <inspiration_ids>  (1031) 
[82, 103]

>  <energy_score>  (1031) 
4.826428536014646

>  <distance_score>  (1031) 
14.997750857560455

>  <path>  (1031) 
/opt/xchem-fragalysis-2/maxwin/BulkDock/SCRATCH/511018/C6241-P82/C6241-P82.minimised.mol

>  <scratch_subdir>  (1031) 
/opt/xchem-fragalysis-2/maxwin/BulkDock/SCRATCH/511018/C6241-P82

>  <fragmenstein_runtime>  (1031) 
27.602494955062866

>  <fragmenstein_outcome>  (1031) 
too moved

>  <fragmenstein_mode>  (1031) 
expansion

>  <fragmenstein_error>  (1031) 


$$$$
C6241-P103
     RDKit          3D

 37 39  0  0  0  0  0  0  0  0999 V2000
    0.7909  -13.4672   32.3306 O   0  0  0  0  0  0  0  0  0  0  0  0
   -0.3192  -13.0183   32.1724 C   0  0  0  0  0  0  0  0  0  0  0  0
   -0.6970  -11.7534   30.8425 N   0  0  0  0  0  0  0  0  0  0  0  0
    0.4754  -10.8059   29.6022 C   0  0  0  0  0  0  0  0  0  0  0  0
    2.3194  -10.8442   28.9637 C   0  0  0  0  0  0  0  0  0  0  0  0
    4.1599  -10.1428   28.7678 C   0  0  0  0  0  0  0  0  0  0  0  0
    5.4161   -9.8836   27.7337 N   0  0  0  0  0  0  0  0  0  0  0  0
    6.4094  -10.8816   27.6796 C   0  0  0  0  0  0  0  0  0  0  0  0
    7.3757  -10.6739   26.8249 N   0  0  0  0  0  0  0  0  0  0  0  0
    7.1843   -9.4267   26.3445 C   0  0  0  0  0  0  0  0  0  0  0  0
    7.9972   -8.7803   25.3750 C   0  0  0  0  0  0  0  0  0  0  0  0
    7.7205   -7.4890   24.9578 C   0  0  0  0  0  0  0  0  0  0  0  0
    6.6476   -6.8448   25.5337 C   0  0  0  0  0  0  0  0  0  0  0  0
    5.8270   -7.4814   26.5033 C   0  0  0  0  0  0  0  0  0  0  0  0
    6.0354   -8.8268   26.9299 C   0  0  0  0  0  0  0  0  0  0  0  0
   -1.4475  -13.6461   33.5490 C   0  0  0  0  0  0  0  0  0  0  0  0
   -0.9612  -12.7509   34.4832 N   0  0  0  0  0  0  0  0  0  0  0  0
   -1.3431  -12.7066   35.7842 C   0  0  0  0  0  0  0  0  0  0  0  0
   -2.2500  -13.5372   36.3756 C   0  0  0  0  0  0  0  0  0  0  0  0
   -2.7937  -14.5040   35.5779 C   0  0  0  0  0  0  0  0  0  0  0  0
   -2.4328  -14.6300   34.1965 C   0  0  0  0  0  0  0  0  0  0  0  0
   -3.6979  -16.2770   33.7551 Br  0  0  0  0  0  0  0  0  0  0  0  0
   -1.6804  -11.5789   30.8235 H   0  0  0  0  0  0  0  0  0  0  0  0
   -0.1035  -10.7030   28.6709 H   0  0  0  0  0  0  0  0  0  0  0  0
    0.3289   -9.7593   29.8772 H   0  0  0  0  0  0  0  0  0  0  0  0
    2.4786  -10.6285   30.0070 H   0  0  0  0  0  0  0  0  0  0  0  0
    2.0060  -10.1157   28.2139 H   0  0  0  0  0  0  0  0  0  0  0  0
    4.5405  -11.1505   28.8980 H   0  0  0  0  0  0  0  0  0  0  0  0
    4.5790   -9.6736   29.6481 H   0  0  0  0  0  0  0  0  0  0  0  0
    6.3345  -11.7730   28.2869 H   0  0  0  0  0  0  0  0  0  0  0  0
    8.8483   -9.3215   24.9708 H   0  0  0  0  0  0  0  0  0  0  0  0
    8.3456   -6.9987   24.2189 H   0  0  0  0  0  0  0  0  0  0  0  0
    6.4160   -5.8231   25.2354 H   0  0  0  0  0  0  0  0  0  0  0  0
    5.0194   -6.8586   26.8371 H   0  0  0  0  0  0  0  0  0  0  0  0
   -0.8553  -11.9241   36.3620 H   0  0  0  0  0  0  0  0  0  0  0  0
   -2.5115  -13.4397   37.4217 H   0  0  0  0  0  0  0  0  0  0  0  0
   -3.5095  -15.1696   36.0571 H   0  0  0  0  0  0  0  0  0  0  0  0
  1  2  2  0
  2  3  1  0
  3  4  1  0
  4  5  1  0
  5  6  1  0
  6  7  1  0
  7  8  1  0
  8  9  2  0
  9 10  1  0
 10 11  2  0
 11 12  1  0
 12 13  2  0
 13 14  1  0
 14 15  2  0
  2 16  1  0
 16 17  2  0
 17 18  1  0
 18 19  2  0
 19 20  1  0
 20 21  2  0
 21 22  1  0
 15  7  1  0
 21 16  1  0
 15 10  1  0
  3 23  1  0
  4 24  1  0
  4 25  1  0
  5 26  1  0
  5 27  1  0
  6 28  1  0
  6 29  1  0
  8 30  1  0
 11 31  1  0
 12 32  1  0
 13 33  1  0
 14 34  1  0
 18 35  1  0
 19 36  1  0
 20 37  1  0
M  END
>  <Energy>  (1032) 
576.00720702017259

>  <compound_id>  (1032) 
6241

>  <target_id>  (1032) 
1

>  <reference_id>  (1032) 
103

>  <inspiration_ids>  (1032) 
[82, 103]

>  <energy_score>  (1032) 
487.97105725925667

>  <distance_score>  (1032) 
15.151825923068067

>  <path>  (1032) 
/opt/xchem-fragalysis-2/maxwin/BulkDock/SCRATCH/511018/C6241-P103/C6241-P103.minimised.mol

>  <scratch_subdir>  (1032) 
/opt/xchem-fragalysis-2/maxwin/BulkDock/SCRATCH/511018/C6241-P103

>  <fragmenstein_runtime>  (1032) 
23.274807691574097

>  <fragmenstein_outcome>  (1032) 
too moved

>  <fragmenstein_mode>  (1032) 
expansion

>  <fragmenstein_error>  (1032) 


$$$$
C6243-P82
     RDKit          3D

 36 38  0  0  0  0  0  0  0  0999 V2000
   -5.8015   -8.8981   25.6574 C   0  0  0  0  0  0  0  0  0  0  0  0
   -4.7930   -9.8097   24.9443 C   0  0  0  0  0  0  0  0  0  0  0  0
   -3.6158   -8.9602   24.5444 N   0  0  0  0  0  0  0  0  0  0  0  0
   -3.1969   -8.4015   23.1596 C   0  0  0  0  0  0  0  0  0  0  0  0
   -3.6824   -8.6011   22.1147 O   0  0  0  0  0  0  0  0  0  0  0  0
   -1.9780   -7.5578   23.5209 N   0  0  0  0  0  0  0  0  0  0  0  0
   -1.0776   -6.8890   22.7151 N   0  0  0  0  0  0  0  0  0  0  0  0
   -0.5744   -7.4465   21.5698 C   0  0  0  0  0  0  0  0  0  0  0  0
    0.2103   -6.6189   20.9225 N   0  0  0  0  0  0  0  0  0  0  0  0
    0.2635   -5.4815   21.6759 C   0  0  0  0  0  0  0  0  0  0  0  0
    0.9870   -4.2966   21.4173 C   0  0  0  0  0  0  0  0  0  0  0  0
    0.9994   -3.2907   22.3761 C   0  0  0  0  0  0  0  0  0  0  0  0
    0.2832   -3.4636   23.5592 C   0  0  0  0  0  0  0  0  0  0  0  0
   -0.4797   -4.6248   23.8191 C   0  0  0  0  0  0  0  0  0  0  0  0
   -0.4830   -5.6390   22.8544 C   0  0  0  0  0  0  0  0  0  0  0  0
   -4.6933  -11.1671   25.6987 C   0  0  0  0  0  0  0  0  0  0  0  0
   -5.1877  -12.3527   25.1100 C   0  0  0  0  0  0  0  0  0  0  0  0
   -5.3701  -13.5581   25.7377 N   0  0  0  0  0  0  0  0  0  0  0  0
   -5.0539  -13.6129   27.0486 C   0  0  0  0  0  0  0  0  0  0  0  0
   -4.5616  -12.5173   27.7323 C   0  0  0  0  0  0  0  0  0  0  0  0
   -4.2674  -12.6041   29.0357 F   0  0  0  0  0  0  0  0  0  0  0  0
   -4.3785  -11.2948   27.0601 C   0  0  0  0  0  0  0  0  0  0  0  0
   -6.0294   -8.0176   25.0459 H   0  0  0  0  0  0  0  0  0  0  0  0
   -5.4036   -8.5359   26.6121 H   0  0  0  0  0  0  0  0  0  0  0  0
   -6.7433   -9.4207   25.8579 H   0  0  0  0  0  0  0  0  0  0  0  0
   -5.2474  -10.0520   23.9740 H   0  0  0  0  0  0  0  0  0  0  0  0
   -3.0500   -8.5350   25.2583 H   0  0  0  0  0  0  0  0  0  0  0  0
   -1.7785   -7.6624   24.4956 H   0  0  0  0  0  0  0  0  0  0  0  0
   -0.8255   -8.4486   21.2443 H   0  0  0  0  0  0  0  0  0  0  0  0
    1.5694   -4.2006   20.5079 H   0  0  0  0  0  0  0  0  0  0  0  0
    1.5715   -2.3840   22.2033 H   0  0  0  0  0  0  0  0  0  0  0  0
    0.2930   -2.6665   24.3016 H   0  0  0  0  0  0  0  0  0  0  0  0
   -1.0503   -4.7174   24.7371 H   0  0  0  0  0  0  0  0  0  0  0  0
   -5.5049  -12.3597   24.0671 H   0  0  0  0  0  0  0  0  0  0  0  0
   -5.2037  -14.5658   27.5425 H   0  0  0  0  0  0  0  0  0  0  0  0
   -4.0330  -10.4404   27.6351 H   0  0  0  0  0  0  0  0  0  0  0  0
  1  2  1  0
  2  3  1  0
  3  4  1  0
  4  5  2  0
  4  6  1  0
  6  7  1  0
  7  8  1  0
  8  9  2  0
  9 10  1  0
 10 11  2  0
 11 12  1  0
 12 13  2  0
 13 14  1  0
 14 15  2  0
  2 16  1  0
 16 17  2  0
 17 18  1  0
 18 19  2  0
 19 20  1  0
 20 21  1  0
 20 22  2  0
 15  7  1  0
 22 16  1  0
 15 10  1  0
  1 23  1  0
  1 24  1  0
  1 25  1  0
  2 26  1  0
  3 27  1  0
  6 28  1  0
  8 29  1  0
 11 30  1  0
 12 31  1  0
 13 32  1  0
 14 33  1  0
 17 34  1  0
 19 35  1  0
 22 36  1  0
M  END
>  <Energy>  (1033) 
-1.8715317170772103

>  <compound_id>  (1033) 
6243

>  <target_id>  (1033) 
1

>  <reference_id>  (1033) 
82

>  <inspiration_ids>  (1033) 
[82, 103]

>  <energy_score>  (1033) 
19.691349718583524

>  <distance_score>  (1033) 
15.977306945286072

>  <path>  (1033) 
/opt/xchem-fragalysis-2/maxwin/BulkDock/SCRATCH/511018/C6243-P82/C6243-P82.minimised.mol

>  <scratch_subdir>  (1033) 
/opt/xchem-fragalysis-2/maxwin/BulkDock/SCRATCH/511018/C6243-P82

>  <fragmenstein_runtime>  (1033) 
21.958462238311768

>  <fragmenstein_outcome>  (1033) 
too moved

>  <fragmenstein_mode>  (1033) 
expansion

>  <fragmenstein_error>  (1033) 


$$$$
C6243-P103
     RDKit          3D

 36 38  0  0  0  0  0  0  0  0999 V2000
    0.6180  -14.2686   23.7889 C   0  0  0  0  0  0  0  0  0  0  0  0
    1.7619  -12.6269   23.8639 C   0  0  0  0  0  0  0  0  0  0  0  0
    3.0385  -12.1423   23.5895 N   0  0  0  0  0  0  0  0  0  0  0  0
    3.7027  -10.3390   23.1940 C   0  0  0  0  0  0  0  0  0  0  0  0
    3.0509   -9.0652   22.9344 O   0  0  0  0  0  0  0  0  0  0  0  0
    5.5815  -10.8883   23.5380 N   0  0  0  0  0  0  0  0  0  0  0  0
    6.9674  -10.0536   23.7941 N   0  0  0  0  0  0  0  0  0  0  0  0
    7.8986  -10.9624   24.4146 C   0  0  0  0  0  0  0  0  0  0  0  0
    8.9535  -10.3961   24.9543 N   0  0  0  0  0  0  0  0  0  0  0  0
    8.5823   -9.1114   25.1642 C   0  0  0  0  0  0  0  0  0  0  0  0
    9.3559   -8.0341   25.6357 C   0  0  0  0  0  0  0  0  0  0  0  0
    8.7726   -6.7694   25.7420 C   0  0  0  0  0  0  0  0  0  0  0  0
    7.4204   -6.5948   25.4613 C   0  0  0  0  0  0  0  0  0  0  0  0
    6.6177   -7.6638   25.0344 C   0  0  0  0  0  0  0  0  0  0  0  0
    7.2390   -8.9255   24.8098 C   0  0  0  0  0  0  0  0  0  0  0  0
    2.0562  -13.9474   25.2123 C   0  0  0  0  0  0  0  0  0  0  0  0
    2.8588  -15.0854   25.0385 C   0  0  0  0  0  0  0  0  0  0  0  0
    2.7762  -16.2109   25.8217 N   0  0  0  0  0  0  0  0  0  0  0  0
    1.9076  -16.1988   26.8746 C   0  0  0  0  0  0  0  0  0  0  0  0
    1.1384  -15.1070   27.2171 C   0  0  0  0  0  0  0  0  0  0  0  0
    0.3240  -15.1385   28.2784 F   0  0  0  0  0  0  0  0  0  0  0  0
    1.2164  -13.9716   26.4142 C   0  0  0  0  0  0  0  0  0  0  0  0
   -0.2091  -14.1422   23.0515 H   0  0  0  0  0  0  0  0  0  0  0  0
   -0.0106  -14.5476   24.6539 H   0  0  0  0  0  0  0  0  0  0  0  0
    1.1539  -15.1228   23.4684 H   0  0  0  0  0  0  0  0  0  0  0  0
    1.6136  -11.9521   24.6844 H   0  0  0  0  0  0  0  0  0  0  0  0
    3.7659  -12.7409   23.7851 H   0  0  0  0  0  0  0  0  0  0  0  0
    5.6402  -11.8299   23.7534 H   0  0  0  0  0  0  0  0  0  0  0  0
    7.7754  -12.0269   24.2903 H   0  0  0  0  0  0  0  0  0  0  0  0
   10.4009   -8.1886   25.8826 H   0  0  0  0  0  0  0  0  0  0  0  0
    9.3733   -5.9240   26.0672 H   0  0  0  0  0  0  0  0  0  0  0  0
    6.9773   -5.6045   25.5410 H   0  0  0  0  0  0  0  0  0  0  0  0
    5.6033   -7.4628   24.6970 H   0  0  0  0  0  0  0  0  0  0  0  0
    3.5316  -15.1750   24.1941 H   0  0  0  0  0  0  0  0  0  0  0  0
    1.8693  -17.1106   27.4606 H   0  0  0  0  0  0  0  0  0  0  0  0
    0.5749  -13.1297   26.6547 H   0  0  0  0  0  0  0  0  0  0  0  0
  1  2  1  0
  2  3  1  0
  3  4  1  0
  4  5  2  0
  4  6  1  0
  6  7  1  0
  7  8  1  0
  8  9  2  0
  9 10  1  0
 10 11  2  0
 11 12  1  0
 12 13  2  0
 13 14  1  0
 14 15  2  0
  2 16  1  0
 16 17  2  0
 17 18  1  0
 18 19  2  0
 19 20  1  0
 20 21  1  0
 20 22  2  0
 15  7  1  0
 22 16  1  0
 15 10  1  0
  1 23  1  0
  1 24  1  0
  1 25  1  0
  2 26  1  0
  3 27  1  0
  6 28  1  0
  8 29  1  0
 11 30  1  0
 12 31  1  0
 13 32  1  0
 14 33  1  0
 17 34  1  0
 19 35  1  0
 22 36  1  0
M  END
>  <Energy>  (1034) 
425.49419040976738

>  <compound_id>  (1034) 
6243

>  <target_id>  (1034) 
1

>  <reference_id>  (1034) 
103

>  <inspiration_ids>  (1034) 
[82, 103]

>  <energy_score>  (1034) 
447.0570718454262

>  <distance_score>  (1034) 
16.310411324705957

>  <path>  (1034) 
/opt/xchem-fragalysis-2/maxwin/BulkDock/SCRATCH/511018/C6243-P103/C6243-P103.minimised.mol

>  <scratch_subdir>  (1034) 
/opt/xchem-fragalysis-2/maxwin/BulkDock/SCRATCH/511018/C6243-P103

>  <fragmenstein_runtime>  (1034) 
23.531503200531006

>  <fragmenstein_outcome>  (1034) 
too moved

>  <fragmenstein_mode>  (1034) 
expansion

>  <fragmenstein_error>  (1034) 


$$$$
C6244-P82
     RDKit          3D

 45 47  0  0  0  0  0  0  0  0999 V2000
    3.3840  -22.4144   31.2675 C   0  0  0  0  0  0  0  0  0  0  0  0
    3.1048  -21.5716   32.4760 C   0  0  0  0  0  0  0  0  0  0  0  0
    1.9827  -22.0732   33.2154 C   0  0  0  0  0  0  0  0  0  0  0  0
    1.6272  -21.5363   34.4353 C   0  0  0  0  0  0  0  0  0  0  0  0
    2.4301  -20.5232   34.8985 C   0  0  0  0  0  0  0  0  0  0  0  0
    3.4851  -19.9902   34.2077 N   0  0  0  0  0  0  0  0  0  0  0  0
    3.8150  -20.4243   32.9516 C   0  0  0  0  0  0  0  0  0  0  0  0
    5.0051  -19.5304   32.2940 C   0  0  0  0  0  0  0  0  0  0  0  0
    4.8176  -18.7184   31.0006 N   0  0  0  0  0  0  0  0  0  0  0  0
    4.6221  -17.2661   30.7813 C   0  0  0  0  0  0  0  0  0  0  0  0
    4.6434  -16.3552   31.5614 O   0  0  0  0  0  0  0  0  0  0  0  0
    4.2189  -17.2452   29.0271 N   0  0  0  0  0  0  0  0  0  0  0  0
    3.8447  -15.8393   27.8811 C   0  0  0  0  0  0  0  0  0  0  0  0
    4.2713  -14.3616   26.7951 C   0  0  0  0  0  0  0  0  0  0  0  0
    5.7275  -12.9863   26.8325 C   0  0  0  0  0  0  0  0  0  0  0  0
    7.1482  -12.5574   26.3956 N   0  0  0  0  0  0  0  0  0  0  0  0
    8.2319  -13.3351   26.0585 C   0  0  0  0  0  0  0  0  0  0  0  0
    9.0308  -12.7573   25.1799 N   0  0  0  0  0  0  0  0  0  0  0  0
    8.6225  -11.4634   25.0873 C   0  0  0  0  0  0  0  0  0  0  0  0
    9.1593  -10.4140   24.3073 C   0  0  0  0  0  0  0  0  0  0  0  0
    8.6704   -9.1190   24.4734 C   0  0  0  0  0  0  0  0  0  0  0  0
    7.6986   -8.8788   25.4408 C   0  0  0  0  0  0  0  0  0  0  0  0
    7.1454   -9.9245   26.2173 C   0  0  0  0  0  0  0  0  0  0  0  0
    7.5549  -11.2485   25.9666 C   0  0  0  0  0  0  0  0  0  0  0  0
    3.3901  -23.4768   31.5420 H   0  0  0  0  0  0  0  0  0  0  0  0
    2.6157  -22.2702   30.5041 H   0  0  0  0  0  0  0  0  0  0  0  0
    4.3827  -22.2176   30.8678 H   0  0  0  0  0  0  0  0  0  0  0  0
    1.4112  -22.9183   32.8334 H   0  0  0  0  0  0  0  0  0  0  0  0
    0.7942  -21.9121   35.0139 H   0  0  0  0  0  0  0  0  0  0  0  0
    2.2480  -20.0593   35.8645 H   0  0  0  0  0  0  0  0  0  0  0  0
    5.3533  -18.8224   33.0545 H   0  0  0  0  0  0  0  0  0  0  0  0
    5.8214  -20.2298   32.0836 H   0  0  0  0  0  0  0  0  0  0  0  0
    4.8204  -19.1630   30.1549 H   0  0  0  0  0  0  0  0  0  0  0  0
    4.2086  -18.1636   28.6673 H   0  0  0  0  0  0  0  0  0  0  0  0
    2.7566  -15.8794   27.8814 H   0  0  0  0  0  0  0  0  0  0  0  0
    4.4090  -15.1732   28.4716 H   0  0  0  0  0  0  0  0  0  0  0  0
    4.3064  -14.7127   25.7497 H   0  0  0  0  0  0  0  0  0  0  0  0
    3.3072  -13.9181   26.9853 H   0  0  0  0  0  0  0  0  0  0  0  0
    5.4937  -12.6858   25.8207 H   0  0  0  0  0  0  0  0  0  0  0  0
    5.5242  -12.3166   27.6750 H   0  0  0  0  0  0  0  0  0  0  0  0
    8.3431  -14.3619   26.3843 H   0  0  0  0  0  0  0  0  0  0  0  0
    9.9715  -10.6242   23.6193 H   0  0  0  0  0  0  0  0  0  0  0  0
    9.0863   -8.3010   23.8922 H   0  0  0  0  0  0  0  0  0  0  0  0
    7.3601   -7.8581   25.6104 H   0  0  0  0  0  0  0  0  0  0  0  0
    6.4022   -9.7053   26.9770 H   0  0  0  0  0  0  0  0  0  0  0  0
  1  2  1  0
  2  3  2  0
  3  4  1  0
  4  5  2  0
  5  6  1  0
  6  7  2  0
  7  8  1  0
  8  9  1  0
  9 10  1  0
 10 11  2  0
 10 12  1  0
 12 13  1  0
 13 14  1  0
 14 15  1  0
 15 16  1  0
 16 17  1  0
 17 18  2  0
 18 19  1  0
 19 20  2  0
 20 21  1  0
 21 22  2  0
 22 23  1  0
 23 24  2  0
  7  2  1  0
 24 16  1  0
 24 19  1  0
  1 25  1  0
  1 26  1  0
  1 27  1  0
  3 28  1  0
  4 29  1  0
  5 30  1  0
  8 31  1  0
  8 32  1  0
  9 33  1  0
 12 34  1  0
 13 35  1  0
 13 36  1  0
 14 37  1  0
 14 38  1  0
 15 39  1  0
 15 40  1  0
 17 41  1  0
 20 42  1  0
 21 43  1  0
 22 44  1  0
 23 45  1  0
M  END
>  <Energy>  (1035) 
281.92603706367532

>  <compound_id>  (1035) 
6244

>  <target_id>  (1035) 
1

>  <reference_id>  (1035) 
82

>  <inspiration_ids>  (1035) 
[82, 103]

>  <energy_score>  (1035) 
301.84290660160605

>  <distance_score>  (1035) 
15.441590838592827

>  <path>  (1035) 
/opt/xchem-fragalysis-2/maxwin/BulkDock/SCRATCH/511018/C6244-P82/C6244-P82.minimised.mol

>  <scratch_subdir>  (1035) 
/opt/xchem-fragalysis-2/maxwin/BulkDock/SCRATCH/511018/C6244-P82

>  <fragmenstein_runtime>  (1035) 
46.3965630531311

>  <fragmenstein_outcome>  (1035) 
too moved

>  <fragmenstein_mode>  (1035) 
expansion

>  <fragmenstein_error>  (1035) 


$$$$
C6244-P103
     RDKit          3D

 45 47  0  0  0  0  0  0  0  0999 V2000
   -0.7031  -20.4133   21.2116 C   0  0  0  0  0  0  0  0  0  0  0  0
    0.0841  -21.5065   21.8753 C   0  0  0  0  0  0  0  0  0  0  0  0
   -0.6877  -22.3925   22.6751 C   0  0  0  0  0  0  0  0  0  0  0  0
   -0.0951  -23.4778   23.2893 C   0  0  0  0  0  0  0  0  0  0  0  0
    1.2651  -23.6224   23.1025 C   0  0  0  0  0  0  0  0  0  0  0  0
    2.0517  -22.7993   22.3404 N   0  0  0  0  0  0  0  0  0  0  0  0
    1.4833  -21.7442   21.6814 C   0  0  0  0  0  0  0  0  0  0  0  0
    2.3156  -21.1425   20.4712 C   0  0  0  0  0  0  0  0  0  0  0  0
    3.5792  -20.2962   20.4891 N   0  0  0  0  0  0  0  0  0  0  0  0
    4.6073  -19.9593   19.3361 C   0  0  0  0  0  0  0  0  0  0  0  0
    4.6402  -20.3701   18.2360 O   0  0  0  0  0  0  0  0  0  0  0  0
    5.4864  -18.8759   20.0014 N   0  0  0  0  0  0  0  0  0  0  0  0
    6.7072  -18.1021   19.4650 C   0  0  0  0  0  0  0  0  0  0  0  0
    6.5637  -16.6881   18.6739 C   0  0  0  0  0  0  0  0  0  0  0  0
    7.8658  -15.6759   18.6194 C   0  0  0  0  0  0  0  0  0  0  0  0
    7.7366  -14.2062   18.4724 N   0  0  0  0  0  0  0  0  0  0  0  0
    6.6666  -13.5131   17.9598 C   0  0  0  0  0  0  0  0  0  0  0  0
    6.7919  -12.2064   18.0819 N   0  0  0  0  0  0  0  0  0  0  0  0
    7.9978  -12.0157   18.6930 C   0  0  0  0  0  0  0  0  0  0  0  0
    8.5783  -10.8217   19.1488 C   0  0  0  0  0  0  0  0  0  0  0  0
    9.8387  -10.8669   19.7493 C   0  0  0  0  0  0  0  0  0  0  0  0
   10.5287  -12.0715   19.8468 C   0  0  0  0  0  0  0  0  0  0  0  0
    9.9490  -13.2801   19.4264 C   0  0  0  0  0  0  0  0  0  0  0  0
    8.6555  -13.2347   18.8833 C   0  0  0  0  0  0  0  0  0  0  0  0
   -0.0856  -19.5248   21.0571 H   0  0  0  0  0  0  0  0  0  0  0  0
   -1.0734  -20.7571   20.2409 H   0  0  0  0  0  0  0  0  0  0  0  0
   -1.5545  -20.1045   21.8253 H   0  0  0  0  0  0  0  0  0  0  0  0
   -1.7556  -22.2258   22.8022 H   0  0  0  0  0  0  0  0  0  0  0  0
   -0.6635  -24.1732   23.8925 H   0  0  0  0  0  0  0  0  0  0  0  0
    1.8028  -24.4468   23.5638 H   0  0  0  0  0  0  0  0  0  0  0  0
    1.6238  -20.5551   19.8581 H   0  0  0  0  0  0  0  0  0  0  0  0
    2.5752  -22.0024   19.8398 H   0  0  0  0  0  0  0  0  0  0  0  0
    3.8705  -19.8450   21.3386 H   0  0  0  0  0  0  0  0  0  0  0  0
    5.2572  -18.8160   20.9786 H   0  0  0  0  0  0  0  0  0  0  0  0
    7.3403  -17.9411   20.3427 H   0  0  0  0  0  0  0  0  0  0  0  0
    7.2260  -18.7981   18.7971 H   0  0  0  0  0  0  0  0  0  0  0  0
    5.7197  -16.1399   19.0696 H   0  0  0  0  0  0  0  0  0  0  0  0
    6.2883  -16.9190   17.6370 H   0  0  0  0  0  0  0  0  0  0  0  0
    8.4343  -15.8295   19.5431 H   0  0  0  0  0  0  0  0  0  0  0  0
    8.4994  -15.9946   17.7832 H   0  0  0  0  0  0  0  0  0  0  0  0
    5.8043  -14.0149   17.5382 H   0  0  0  0  0  0  0  0  0  0  0  0
    8.0317   -9.8938   19.0524 H   0  0  0  0  0  0  0  0  0  0  0  0
   10.2835   -9.9567   20.1380 H   0  0  0  0  0  0  0  0  0  0  0  0
   11.5228  -12.0868   20.2899 H   0  0  0  0  0  0  0  0  0  0  0  0
   10.4802  -14.2184   19.5484 H   0  0  0  0  0  0  0  0  0  0  0  0
  1  2  1  0
  2  3  2  0
  3  4  1  0
  4  5  2  0
  5  6  1  0
  6  7  2  0
  7  8  1  0
  8  9  1  0
  9 10  1  0
 10 11  2  0
 10 12  1  0
 12 13  1  0
 13 14  1  0
 14 15  1  0
 15 16  1  0
 16 17  1  0
 17 18  2  0
 18 19  1  0
 19 20  2  0
 20 21  1  0
 21 22  2  0
 22 23  1  0
 23 24  2  0
  7  2  1  0
 24 16  1  0
 24 19  1  0
  1 25  1  0
  1 26  1  0
  1 27  1  0
  3 28  1  0
  4 29  1  0
  5 30  1  0
  8 31  1  0
  8 32  1  0
  9 33  1  0
 12 34  1  0
 13 35  1  0
 13 36  1  0
 14 37  1  0
 14 38  1  0
 15 39  1  0
 15 40  1  0
 17 41  1  0
 20 42  1  0
 21 43  1  0
 22 44  1  0
 23 45  1  0
M  END
>  <Energy>  (1036) 
19.591412084306182

>  <compound_id>  (1036) 
6244

>  <target_id>  (1036) 
1

>  <reference_id>  (1036) 
103

>  <inspiration_ids>  (1036) 
[82, 103]

>  <energy_score>  (1036) 
39.50828162224241

>  <distance_score>  (1036) 
14.419995730115767

>  <path>  (1036) 
/opt/xchem-fragalysis-2/maxwin/BulkDock/SCRATCH/511018/C6244-P103/C6244-P103.minimised.mol

>  <scratch_subdir>  (1036) 
/opt/xchem-fragalysis-2/maxwin/BulkDock/SCRATCH/511018/C6244-P103

>  <fragmenstein_runtime>  (1036) 
39.95871019363403

>  <fragmenstein_outcome>  (1036) 
too moved

>  <fragmenstein_mode>  (1036) 
expansion

>  <fragmenstein_error>  (1036) 


$$$$
C6245-P82
     RDKit          3D

 42 44  0  0  0  0  0  0  0  0999 V2000
   -2.1315  -14.7763   24.8939 O   0  0  0  0  0  0  0  0  0  0  0  0
   -1.5076  -14.4729   25.8350 C   0  0  0  0  0  0  0  0  0  0  0  0
    0.3329  -13.5341   25.9887 N   0  0  0  0  0  0  0  0  0  0  0  0
    1.6800  -12.9814   24.6198 C   0  0  0  0  0  0  0  0  0  0  0  0
    3.2090  -12.5490   23.4514 C   0  0  0  0  0  0  0  0  0  0  0  0
    4.3656  -11.2905   22.2888 C   0  0  0  0  0  0  0  0  0  0  0  0
    6.0905  -11.2264   21.4698 N   0  0  0  0  0  0  0  0  0  0  0  0
    6.4191  -11.5435   20.1374 C   0  0  0  0  0  0  0  0  0  0  0  0
    7.3918  -10.7908   19.6700 N   0  0  0  0  0  0  0  0  0  0  0  0
    8.0258  -10.3563   20.7921 C   0  0  0  0  0  0  0  0  0  0  0  0
    9.2290   -9.6380   20.8879 C   0  0  0  0  0  0  0  0  0  0  0  0
    9.8125   -9.4464   22.1354 C   0  0  0  0  0  0  0  0  0  0  0  0
    9.2179  -10.0042   23.2653 C   0  0  0  0  0  0  0  0  0  0  0  0
    7.9982  -10.7095   23.1979 C   0  0  0  0  0  0  0  0  0  0  0  0
    7.3637  -10.8094   21.9469 C   0  0  0  0  0  0  0  0  0  0  0  0
   -2.0137  -14.9523   27.5932 N   0  0  0  0  0  0  0  0  0  0  0  0
   -3.4575  -16.0765   28.2429 C   0  0  0  0  0  0  0  0  0  0  0  0
   -4.9687  -16.4178   29.4593 C   0  0  0  0  0  0  0  0  0  0  0  0
   -5.8183  -17.5005   29.5971 C   0  0  0  0  0  0  0  0  0  0  0  0
   -6.7019  -17.7760   31.2299 C   0  0  0  0  0  0  0  0  0  0  0  0
   -6.3918  -17.5122   32.4814 C   0  0  0  0  0  0  0  0  0  0  0  0
   -7.0980  -17.7545   33.5766 F   0  0  0  0  0  0  0  0  0  0  0  0
   -5.8161  -16.4182   32.0703 C   0  0  0  0  0  0  0  0  0  0  0  0
   -5.4864  -15.7589   30.5118 N   0  0  0  0  0  0  0  0  0  0  0  0
    0.6540  -13.4800   26.9007 H   0  0  0  0  0  0  0  0  0  0  0  0
    1.6791  -11.9581   24.9883 H   0  0  0  0  0  0  0  0  0  0  0  0
    2.3667  -13.4007   25.3277 H   0  0  0  0  0  0  0  0  0  0  0  0
    3.1533  -13.5125   23.0002 H   0  0  0  0  0  0  0  0  0  0  0  0
    2.4371  -11.8966   23.0487 H   0  0  0  0  0  0  0  0  0  0  0  0
    4.3946  -12.1140   21.5092 H   0  0  0  0  0  0  0  0  0  0  0  0
    5.0332  -10.7144   22.9345 H   0  0  0  0  0  0  0  0  0  0  0  0
    5.8631  -12.2642   19.5496 H   0  0  0  0  0  0  0  0  0  0  0  0
    9.7234   -9.3042   19.9923 H   0  0  0  0  0  0  0  0  0  0  0  0
   10.7555   -8.9141   22.2202 H   0  0  0  0  0  0  0  0  0  0  0  0
    9.7046   -9.8887   24.2318 H   0  0  0  0  0  0  0  0  0  0  0  0
    7.5319  -11.1027   24.0935 H   0  0  0  0  0  0  0  0  0  0  0  0
   -1.2965  -14.6631   28.2416 H   0  0  0  0  0  0  0  0  0  0  0  0
   -3.1278  -17.0123   27.7814 H   0  0  0  0  0  0  0  0  0  0  0  0
   -3.1678  -15.5114   29.1915 H   0  0  0  0  0  0  0  0  0  0  0  0
   -6.5376  -17.4686   28.7486 H   0  0  0  0  0  0  0  0  0  0  0  0
   -7.7610  -17.8937   31.3190 H   0  0  0  0  0  0  0  0  0  0  0  0
   -5.3063  -15.9849   32.9294 H   0  0  0  0  0  0  0  0  0  0  0  0
  1  2  2  0
  2  3  1  0
  3  4  1  0
  4  5  1  0
  5  6  1  0
  6  7  1  0
  7  8  1  0
  8  9  2  0
  9 10  1  0
 10 11  2  0
 11 12  1  0
 12 13  2  0
 13 14  1  0
 14 15  2  0
  2 16  1  0
 16 17  1  0
 17 18  1  0
 18 19  2  0
 19 20  1  0
 20 21  2  0
 21 22  1  0
 21 23  1  0
 23 24  2  0
 15  7  1  0
 24 18  1  0
 15 10  1  0
  3 25  1  0
  4 26  1  0
  4 27  1  0
  5 28  1  0
  5 29  1  0
  6 30  1  0
  6 31  1  0
  8 32  1  0
 11 33  1  0
 12 34  1  0
 13 35  1  0
 14 36  1  0
 16 37  1  0
 17 38  1  0
 17 39  1  0
 19 40  1  0
 20 41  1  0
 23 42  1  0
M  END
>  <Energy>  (1037) 
1035.0227625067432

>  <compound_id>  (1037) 
6245

>  <target_id>  (1037) 
1

>  <reference_id>  (1037) 
82

>  <inspiration_ids>  (1037) 
[82, 103]

>  <energy_score>  (1037) 
1050.183452944332

>  <distance_score>  (1037) 
11.830038326396895

>  <path>  (1037) 
/opt/xchem-fragalysis-2/maxwin/BulkDock/SCRATCH/511018/C6245-P82/C6245-P82.minimised.mol

>  <scratch_subdir>  (1037) 
/opt/xchem-fragalysis-2/maxwin/BulkDock/SCRATCH/511018/C6245-P82

>  <fragmenstein_runtime>  (1037) 
43.809231758117676

>  <fragmenstein_outcome>  (1037) 
too moved

>  <fragmenstein_mode>  (1037) 
expansion

>  <fragmenstein_error>  (1037) 


$$$$
C6245-P103
     RDKit          3D

 42 44  0  0  0  0  0  0  0  0999 V2000
    1.2512  -14.1565   26.7126 O   0  0  0  0  0  0  0  0  0  0  0  0
    0.8570  -13.6697   25.7550 C   0  0  0  0  0  0  0  0  0  0  0  0
    1.7504  -13.1196   24.5593 N   0  0  0  0  0  0  0  0  0  0  0  0
    3.2647  -13.2063   24.3106 C   0  0  0  0  0  0  0  0  0  0  0  0
    4.5979  -13.9830   25.4265 C   0  0  0  0  0  0  0  0  0  0  0  0
    6.2924  -13.2397   25.6609 C   0  0  0  0  0  0  0  0  0  0  0  0
    6.9649  -11.9771   25.2080 N   0  0  0  0  0  0  0  0  0  0  0  0
    7.1440  -10.8923   26.0693 C   0  0  0  0  0  0  0  0  0  0  0  0
    7.6986   -9.8446   25.4993 N   0  0  0  0  0  0  0  0  0  0  0  0
    8.1951  -10.3179   24.3161 C   0  0  0  0  0  0  0  0  0  0  0  0
    8.9883   -9.6308   23.3657 C   0  0  0  0  0  0  0  0  0  0  0  0
    9.4460  -10.3053   22.2361 C   0  0  0  0  0  0  0  0  0  0  0  0
    9.1567  -11.6578   22.0908 C   0  0  0  0  0  0  0  0  0  0  0  0
    8.3749  -12.3597   23.0371 C   0  0  0  0  0  0  0  0  0  0  0  0
    7.8291  -11.6655   24.1327 C   0  0  0  0  0  0  0  0  0  0  0  0
   -0.9815  -13.6431   25.3916 N   0  0  0  0  0  0  0  0  0  0  0  0
   -2.4201  -14.4446   26.3047 C   0  0  0  0  0  0  0  0  0  0  0  0
   -2.5522  -15.1705   28.1646 C   0  0  0  0  0  0  0  0  0  0  0  0
   -2.9793  -14.1584   29.4635 C   0  0  0  0  0  0  0  0  0  0  0  0
   -4.6030  -13.6742   29.9837 C   0  0  0  0  0  0  0  0  0  0  0  0
   -5.7309  -14.7559   30.0302 C   0  0  0  0  0  0  0  0  0  0  0  0
   -6.7037  -14.2582   29.2288 F   0  0  0  0  0  0  0  0  0  0  0  0
   -5.0668  -16.1936   29.5050 C   0  0  0  0  0  0  0  0  0  0  0  0
   -3.6769  -16.2346   28.4392 N   0  0  0  0  0  0  0  0  0  0  0  0
    1.1780  -12.6811   23.9200 H   0  0  0  0  0  0  0  0  0  0  0  0
    3.4546  -12.5684   23.4571 H   0  0  0  0  0  0  0  0  0  0  0  0
    3.1948  -14.1228   23.7048 H   0  0  0  0  0  0  0  0  0  0  0  0
    4.8062  -14.9716   24.9767 H   0  0  0  0  0  0  0  0  0  0  0  0
    4.2160  -14.2627   26.4197 H   0  0  0  0  0  0  0  0  0  0  0  0
    6.9696  -14.0400   25.3266 H   0  0  0  0  0  0  0  0  0  0  0  0
    6.3867  -13.2300   26.7564 H   0  0  0  0  0  0  0  0  0  0  0  0
    6.7696  -10.9221   27.0848 H   0  0  0  0  0  0  0  0  0  0  0  0
    9.2351   -8.5885   23.5324 H   0  0  0  0  0  0  0  0  0  0  0  0
   10.0542   -9.7900   21.4995 H   0  0  0  0  0  0  0  0  0  0  0  0
    9.5538  -12.1995   21.2336 H   0  0  0  0  0  0  0  0  0  0  0  0
    8.2179  -13.4248   22.9093 H   0  0  0  0  0  0  0  0  0  0  0  0
   -1.1223  -13.2739   24.5190 H   0  0  0  0  0  0  0  0  0  0  0  0
   -2.5636  -15.2046   25.5184 H   0  0  0  0  0  0  0  0  0  0  0  0
   -3.0205  -13.5290   26.2853 H   0  0  0  0  0  0  0  0  0  0  0  0
   -2.7062  -13.0851   29.4100 H   0  0  0  0  0  0  0  0  0  0  0  0
   -4.8150  -12.6022   30.0238 H   0  0  0  0  0  0  0  0  0  0  0  0
   -5.6571  -17.0628   29.2486 H   0  0  0  0  0  0  0  0  0  0  0  0
  1  2  2  0
  2  3  1  0
  3  4  1  0
  4  5  1  0
  5  6  1  0
  6  7  1  0
  7  8  1  0
  8  9  2  0
  9 10  1  0
 10 11  2  0
 11 12  1  0
 12 13  2  0
 13 14  1  0
 14 15  2  0
  2 16  1  0
 16 17  1  0
 17 18  1  0
 18 19  2  0
 19 20  1  0
 20 21  2  0
 21 22  1  0
 21 23  1  0
 23 24  2  0
 15  7  1  0
 24 18  1  0
 15 10  1  0
  3 25  1  0
  4 26  1  0
  4 27  1  0
  5 28  1  0
  5 29  1  0
  6 30  1  0
  6 31  1  0
  8 32  1  0
 11 33  1  0
 12 34  1  0
 13 35  1  0
 14 36  1  0
 16 37  1  0
 17 38  1  0
 17 39  1  0
 19 40  1  0
 20 41  1  0
 23 42  1  0
M  END
>  <Energy>  (1038) 
529.11562320958944

>  <compound_id>  (1038) 
6245

>  <target_id>  (1038) 
1

>  <reference_id>  (1038) 
103

>  <inspiration_ids>  (1038) 
[82, 103]

>  <energy_score>  (1038) 
544.2763136471799

>  <distance_score>  (1038) 
13.771052309409141

>  <path>  (1038) 
/opt/xchem-fragalysis-2/maxwin/BulkDock/SCRATCH/511018/C6245-P103/C6245-P103.minimised.mol

>  <scratch_subdir>  (1038) 
/opt/xchem-fragalysis-2/maxwin/BulkDock/SCRATCH/511018/C6245-P103

>  <fragmenstein_runtime>  (1038) 
32.01989960670471

>  <fragmenstein_outcome>  (1038) 
too moved

>  <fragmenstein_mode>  (1038) 
expansion

>  <fragmenstein_error>  (1038) 


$$$$
C6248-P82
     RDKit          3D

 35 38  0  0  0  0  0  0  0  0999 V2000
    6.4150  -13.8493   26.9122 O   0  0  0  0  0  0  0  0  0  0  0  0
    6.2169  -14.3388   25.8303 C   0  0  0  0  0  0  0  0  0  0  0  0
    6.5002  -13.8246   24.4788 N   0  0  0  0  0  0  0  0  0  0  0  0
    6.9960  -12.5808   24.0546 N   0  0  0  0  0  0  0  0  0  0  0  0
    6.9972  -11.4430   24.8330 C   0  0  0  0  0  0  0  0  0  0  0  0
    7.4177  -10.3687   24.1922 N   0  0  0  0  0  0  0  0  0  0  0  0
    7.7518  -10.8123   22.9402 C   0  0  0  0  0  0  0  0  0  0  0  0
    8.2740  -10.0613   21.8630 C   0  0  0  0  0  0  0  0  0  0  0  0
    8.5650  -10.7068   20.6620 C   0  0  0  0  0  0  0  0  0  0  0  0
    8.3368  -12.0775   20.5429 C   0  0  0  0  0  0  0  0  0  0  0  0
    7.8079  -12.8458   21.6050 C   0  0  0  0  0  0  0  0  0  0  0  0
    7.5127  -12.1956   22.8137 C   0  0  0  0  0  0  0  0  0  0  0  0
    5.4724  -15.7311   25.9502 C   0  0  0  0  0  0  0  0  0  0  0  0
    4.8246  -16.1045   27.1639 C   0  0  0  0  0  0  0  0  0  0  0  0
    4.0995  -17.3234   27.2611 C   0  0  0  0  0  0  0  0  0  0  0  0
    3.3532  -17.6831   28.4204 N   0  0  0  0  0  0  0  0  0  0  0  0
    3.3781  -17.0811   29.6574 C   0  0  0  0  0  0  0  0  0  0  0  0
    2.4960  -17.7665   30.4587 C   0  0  0  0  0  0  0  0  0  0  0  0
    1.9917  -18.7819   29.6347 C   0  0  0  0  0  0  0  0  0  0  0  0
    2.5024  -18.7401   28.4037 N   0  0  0  0  0  0  0  0  0  0  0  0
    4.0917  -18.1782   26.1640 C   0  0  0  0  0  0  0  0  0  0  0  0
    4.7824  -17.7635   25.0297 C   0  0  0  0  0  0  0  0  0  0  0  0
    5.4403  -16.5600   24.8780 N   0  0  0  0  0  0  0  0  0  0  0  0
    6.1235  -14.4696   23.7920 H   0  0  0  0  0  0  0  0  0  0  0  0
    6.6746  -11.4632   25.8646 H   0  0  0  0  0  0  0  0  0  0  0  0
    8.4504   -8.9990   21.9891 H   0  0  0  0  0  0  0  0  0  0  0  0
    8.9736  -10.1482   19.8258 H   0  0  0  0  0  0  0  0  0  0  0  0
    8.5720  -12.5755   19.6029 H   0  0  0  0  0  0  0  0  0  0  0  0
    7.6412  -13.9119   21.4840 H   0  0  0  0  0  0  0  0  0  0  0  0
    4.8605  -15.4024   27.9918 H   0  0  0  0  0  0  0  0  0  0  0  0
    4.0273  -16.2477   29.8768 H   0  0  0  0  0  0  0  0  0  0  0  0
    2.2646  -17.5709   31.4962 H   0  0  0  0  0  0  0  0  0  0  0  0
    1.2722  -19.5534   29.8794 H   0  0  0  0  0  0  0  0  0  0  0  0
    3.5679  -19.1296   26.1604 H   0  0  0  0  0  0  0  0  0  0  0  0
    4.7975  -18.3973   24.1433 H   0  0  0  0  0  0  0  0  0  0  0  0
  1  2  2  0
  2  3  1  0
  3  4  1  0
  4  5  1  0
  5  6  2  0
  6  7  1  0
  7  8  2  0
  8  9  1  0
  9 10  2  0
 10 11  1  0
 11 12  2  0
  2 13  1  0
 13 14  2  0
 14 15  1  0
 15 16  1  0
 16 17  1  0
 17 18  2  0
 18 19  1  0
 19 20  2  0
 15 21  2  0
 21 22  1  0
 22 23  2  0
 12  4  1  0
 23 13  1  0
 12  7  1  0
 20 16  1  0
  3 24  1  0
  5 25  1  0
  8 26  1  0
  9 27  1  0
 10 28  1  0
 11 29  1  0
 14 30  1  0
 17 31  1  0
 18 32  1  0
 19 33  1  0
 21 34  1  0
 22 35  1  0
M  END
>  <Energy>  (1039) 
68.216083732402765

>  <compound_id>  (1039) 
6248

>  <target_id>  (1039) 
1

>  <reference_id>  (1039) 
82

>  <inspiration_ids>  (1039) 
[82, 103]

>  <energy_score>  (1039) 
-4.274118847787406

>  <distance_score>  (1039) 
16.43036188114727

>  <path>  (1039) 
/opt/xchem-fragalysis-2/maxwin/BulkDock/SCRATCH/511018/C6248-P82/C6248-P82.minimised.mol

>  <scratch_subdir>  (1039) 
/opt/xchem-fragalysis-2/maxwin/BulkDock/SCRATCH/511018/C6248-P82

>  <fragmenstein_runtime>  (1039) 
18.348668575286865

>  <fragmenstein_outcome>  (1039) 
too moved

>  <fragmenstein_mode>  (1039) 
expansion

>  <fragmenstein_error>  (1039) 


$$$$
C6248-P103
     RDKit          3D

 35 38  0  0  0  0  0  0  0  0999 V2000
    1.4588  -15.4395   16.8548 O   0  0  0  0  0  0  0  0  0  0  0  0
    2.2140  -15.6838   17.7597 C   0  0  0  0  0  0  0  0  0  0  0  0
    3.4861  -15.0529   18.1406 N   0  0  0  0  0  0  0  0  0  0  0  0
    4.1445  -13.9277   17.6202 N   0  0  0  0  0  0  0  0  0  0  0  0
    3.7164  -13.2527   16.4966 C   0  0  0  0  0  0  0  0  0  0  0  0
    4.4657  -12.2134   16.1911 N   0  0  0  0  0  0  0  0  0  0  0  0
    5.4395  -12.1915   17.1484 C   0  0  0  0  0  0  0  0  0  0  0  0
    6.5205  -11.2942   17.2481 C   0  0  0  0  0  0  0  0  0  0  0  0
    7.4060  -11.4137   18.3164 C   0  0  0  0  0  0  0  0  0  0  0  0
    7.2080  -12.4154   19.2669 C   0  0  0  0  0  0  0  0  0  0  0  0
    6.1420  -13.3398   19.1745 C   0  0  0  0  0  0  0  0  0  0  0  0
    5.2595  -13.2261   18.0883 C   0  0  0  0  0  0  0  0  0  0  0  0
    1.6486  -16.8707   18.6458 C   0  0  0  0  0  0  0  0  0  0  0  0
    0.2665  -17.1999   18.5494 C   0  0  0  0  0  0  0  0  0  0  0  0
   -0.2688  -18.3316   19.2032 C   0  0  0  0  0  0  0  0  0  0  0  0
   -1.6062  -18.7620   18.9706 N   0  0  0  0  0  0  0  0  0  0  0  0
   -2.6100  -18.0845   18.3114 C   0  0  0  0  0  0  0  0  0  0  0  0
   -3.6688  -18.9515   18.1820 C   0  0  0  0  0  0  0  0  0  0  0  0
   -3.2260  -20.1362   18.7859 C   0  0  0  0  0  0  0  0  0  0  0  0
   -1.9920  -20.0267   19.2800 N   0  0  0  0  0  0  0  0  0  0  0  0
    0.5820  -19.1075   19.9750 C   0  0  0  0  0  0  0  0  0  0  0  0
    1.9172  -18.7183   20.0314 C   0  0  0  0  0  0  0  0  0  0  0  0
    2.4770  -17.6085   19.4229 N   0  0  0  0  0  0  0  0  0  0  0  0
    3.8958  -15.5700   18.9097 H   0  0  0  0  0  0  0  0  0  0  0  0
    2.8482  -13.5709   15.9354 H   0  0  0  0  0  0  0  0  0  0  0  0
    6.6542  -10.5482   16.4739 H   0  0  0  0  0  0  0  0  0  0  0  0
    8.2552  -10.7417   18.3984 H   0  0  0  0  0  0  0  0  0  0  0  0
    7.9057  -12.5036   20.0987 H   0  0  0  0  0  0  0  0  0  0  0  0
    6.0225  -14.1200   19.9196 H   0  0  0  0  0  0  0  0  0  0  0  0
   -0.3494  -16.5937   17.8908 H   0  0  0  0  0  0  0  0  0  0  0  0
   -2.4920  -17.0631   17.9867 H   0  0  0  0  0  0  0  0  0  0  0  0
   -4.6209  -18.7571   17.7098 H   0  0  0  0  0  0  0  0  0  0  0  0
   -3.7527  -21.0758   18.8967 H   0  0  0  0  0  0  0  0  0  0  0  0
    0.2540  -19.9997   20.4997 H   0  0  0  0  0  0  0  0  0  0  0  0
    2.6203  -19.3095   20.6190 H   0  0  0  0  0  0  0  0  0  0  0  0
  1  2  2  0
  2  3  1  0
  3  4  1  0
  4  5  1  0
  5  6  2  0
  6  7  1  0
  7  8  2  0
  8  9  1  0
  9 10  2  0
 10 11  1  0
 11 12  2  0
  2 13  1  0
 13 14  2  0
 14 15  1  0
 15 16  1  0
 16 17  1  0
 17 18  2  0
 18 19  1  0
 19 20  2  0
 15 21  2  0
 21 22  1  0
 22 23  2  0
 12  4  1  0
 23 13  1  0
 12  7  1  0
 20 16  1  0
  3 24  1  0
  5 25  1  0
  8 26  1  0
  9 27  1  0
 10 28  1  0
 11 29  1  0
 14 30  1  0
 17 31  1  0
 18 32  1  0
 19 33  1  0
 21 34  1  0
 22 35  1  0
M  END
>  <Energy>  (1040) 
72.37610419701403

>  <compound_id>  (1040) 
6248

>  <target_id>  (1040) 
1

>  <reference_id>  (1040) 
103

>  <inspiration_ids>  (1040) 
[82, 103]

>  <energy_score>  (1040) 
-0.1140983831774065

>  <distance_score>  (1040) 
16.763882767242357

>  <path>  (1040) 
/opt/xchem-fragalysis-2/maxwin/BulkDock/SCRATCH/511018/C6248-P103/C6248-P103.minimised.mol

>  <scratch_subdir>  (1040) 
/opt/xchem-fragalysis-2/maxwin/BulkDock/SCRATCH/511018/C6248-P103

>  <fragmenstein_runtime>  (1040) 
25.7564594745636

>  <fragmenstein_outcome>  (1040) 
too moved

>  <fragmenstein_mode>  (1040) 
expansion

>  <fragmenstein_error>  (1040) 


$$$$
C6250-P82
     RDKit          3D

 32 35  0  0  0  0  0  0  0  0999 V2000
    4.5105   -6.7616   16.1096 C   0  0  0  0  0  0  0  0  0  0  0  0
    3.9630   -7.9926   16.4534 C   0  0  0  0  0  0  0  0  0  0  0  0
    2.7058   -8.0809   17.0721 C   0  0  0  0  0  0  0  0  0  0  0  0
    2.0333   -6.8896   17.3788 C   0  0  0  0  0  0  0  0  0  0  0  0
    2.5754   -5.6479   17.0288 C   0  0  0  0  0  0  0  0  0  0  0  0
    3.8109   -5.5802   16.3636 C   0  0  0  0  0  0  0  0  0  0  0  0
    1.7566   -4.6273   17.4237 N   0  0  0  0  0  0  0  0  0  0  0  0
    0.7427   -5.2159   18.0202 C   0  0  0  0  0  0  0  0  0  0  0  0
    0.8335   -6.5977   18.0252 N   0  0  0  0  0  0  0  0  0  0  0  0
    0.0383   -7.4557   18.9528 C   0  0  0  0  0  0  0  0  0  0  0  0
   -1.1449   -8.3318   18.4594 C   0  0  0  0  0  0  0  0  0  0  0  0
   -1.4029   -8.8199   17.2599 N   0  0  0  0  0  0  0  0  0  0  0  0
   -2.3657   -9.8264   17.4053 N   0  0  0  0  0  0  0  0  0  0  0  0
   -2.7055   -9.9163   18.6838 C   0  0  0  0  0  0  0  0  0  0  0  0
   -3.6469  -10.9270   19.3020 C   0  0  0  0  0  0  0  0  0  0  0  0
   -4.7490  -10.5954   20.0975 C   0  0  0  0  0  0  0  0  0  0  0  0
   -5.6994  -11.5844   20.4192 C   0  0  0  0  0  0  0  0  0  0  0  0
   -5.6161  -12.8895   20.0552 N   0  0  0  0  0  0  0  0  0  0  0  0
   -4.5497  -13.2072   19.2989 C   0  0  0  0  0  0  0  0  0  0  0  0
   -3.5694  -12.2842   18.9130 C   0  0  0  0  0  0  0  0  0  0  0  0
   -2.0094   -8.9476   19.4288 O   0  0  0  0  0  0  0  0  0  0  0  0
    5.4703   -6.7275   15.6127 H   0  0  0  0  0  0  0  0  0  0  0  0
    4.5028   -8.9070   16.2156 H   0  0  0  0  0  0  0  0  0  0  0  0
    2.2696   -9.0443   17.3124 H   0  0  0  0  0  0  0  0  0  0  0  0
    4.1957   -4.6166   16.0552 H   0  0  0  0  0  0  0  0  0  0  0  0
   -0.0830   -4.6993   18.4930 H   0  0  0  0  0  0  0  0  0  0  0  0
   -0.3498   -6.7834   19.7280 H   0  0  0  0  0  0  0  0  0  0  0  0
    0.7662   -8.1064   19.4308 H   0  0  0  0  0  0  0  0  0  0  0  0
   -4.9032   -9.5759   20.4369 H   0  0  0  0  0  0  0  0  0  0  0  0
   -6.5626  -11.3315   21.0294 H   0  0  0  0  0  0  0  0  0  0  0  0
   -4.5000  -14.2421   18.9707 H   0  0  0  0  0  0  0  0  0  0  0  0
   -2.7706  -12.6089   18.2499 H   0  0  0  0  0  0  0  0  0  0  0  0
  1  2  2  0
  2  3  1  0
  3  4  2  0
  4  5  1  0
  5  6  2  0
  5  7  1  0
  7  8  2  0
  8  9  1  0
  9 10  1  0
 10 11  1  0
 11 12  2  0
 12 13  1  0
 13 14  2  0
 14 15  1  0
 15 16  2  0
 16 17  1  0
 17 18  2  0
 18 19  1  0
 19 20  2  0
 14 21  1  0
  6  1  1  0
 21 11  1  0
  9  4  1  0
 20 15  1  0
  1 22  1  0
  2 23  1  0
  3 24  1  0
  6 25  1  0
  8 26  1  0
 10 27  1  0
 10 28  1  0
 16 29  1  0
 17 30  1  0
 19 31  1  0
 20 32  1  0
M  END
>  <Energy>  (1041) 
57.829214306145055

>  <compound_id>  (1041) 
6250

>  <target_id>  (1041) 
1

>  <reference_id>  (1041) 
82

>  <inspiration_ids>  (1041) 
[82, 103]

>  <energy_score>  (1041) 
-2.525197713716352

>  <distance_score>  (1041) 
15.833173726196106

>  <path>  (1041) 
/opt/xchem-fragalysis-2/maxwin/BulkDock/SCRATCH/511018/C6250-P82/C6250-P82.minimised.mol

>  <scratch_subdir>  (1041) 
/opt/xchem-fragalysis-2/maxwin/BulkDock/SCRATCH/511018/C6250-P82

>  <fragmenstein_runtime>  (1041) 
14.706450462341309

>  <fragmenstein_outcome>  (1041) 
too moved

>  <fragmenstein_mode>  (1041) 
expansion

>  <fragmenstein_error>  (1041) 


$$$$
C6250-P103
     RDKit          3D

 32 35  0  0  0  0  0  0  0  0999 V2000
    9.5874   -5.0600   22.3827 C   0  0  0  0  0  0  0  0  0  0  0  0
    9.0573   -6.0841   21.6117 C   0  0  0  0  0  0  0  0  0  0  0  0
    7.9528   -6.8374   22.0419 C   0  0  0  0  0  0  0  0  0  0  0  0
    7.3494   -6.5134   23.2885 C   0  0  0  0  0  0  0  0  0  0  0  0
    7.9769   -5.5762   24.1166 C   0  0  0  0  0  0  0  0  0  0  0  0
    9.0604   -4.8065   23.6482 C   0  0  0  0  0  0  0  0  0  0  0  0
    7.4526   -5.6477   25.3726 N   0  0  0  0  0  0  0  0  0  0  0  0
    6.5915   -6.6400   25.3233 C   0  0  0  0  0  0  0  0  0  0  0  0
    6.1496   -6.8887   24.0397 N   0  0  0  0  0  0  0  0  0  0  0  0
    4.6422   -7.9148   23.5825 C   0  0  0  0  0  0  0  0  0  0  0  0
    4.3996   -9.9934   23.1890 C   0  0  0  0  0  0  0  0  0  0  0  0
    4.4343  -11.1241   22.3403 N   0  0  0  0  0  0  0  0  0  0  0  0
    3.3460  -12.5988   22.8323 N   0  0  0  0  0  0  0  0  0  0  0  0
    2.3063  -12.6548   23.8545 C   0  0  0  0  0  0  0  0  0  0  0  0
    0.6793  -13.8880   24.1298 C   0  0  0  0  0  0  0  0  0  0  0  0
   -0.9229  -13.7292   25.1172 C   0  0  0  0  0  0  0  0  0  0  0  0
   -2.1595  -14.4947   25.5126 C   0  0  0  0  0  0  0  0  0  0  0  0
   -2.3952  -15.4711   24.7709 N   0  0  0  0  0  0  0  0  0  0  0  0
   -1.5787  -15.0330   23.7815 C   0  0  0  0  0  0  0  0  0  0  0  0
   -0.2943  -14.1482   23.2594 C   0  0  0  0  0  0  0  0  0  0  0  0
    2.8273  -11.0630   23.1922 O   0  0  0  0  0  0  0  0  0  0  0  0
   10.4520   -4.5004   22.0312 H   0  0  0  0  0  0  0  0  0  0  0  0
    9.5107   -6.3007   20.6547 H   0  0  0  0  0  0  0  0  0  0  0  0
    7.5744   -7.6222   21.3924 H   0  0  0  0  0  0  0  0  0  0  0  0
    9.5243   -4.0771   24.3047 H   0  0  0  0  0  0  0  0  0  0  0  0
    6.2471   -7.1963   26.1830 H   0  0  0  0  0  0  0  0  0  0  0  0
    4.9131   -8.1175   24.7108 H   0  0  0  0  0  0  0  0  0  0  0  0
    3.8447   -7.2946   24.0304 H   0  0  0  0  0  0  0  0  0  0  0  0
   -1.3247  -12.8006   25.5281 H   0  0  0  0  0  0  0  0  0  0  0  0
   -2.7998  -14.0808   26.2464 H   0  0  0  0  0  0  0  0  0  0  0  0
   -2.5789  -14.8836   23.1921 H   0  0  0  0  0  0  0  0  0  0  0  0
   -0.1382  -14.3400   22.2448 H   0  0  0  0  0  0  0  0  0  0  0  0
  1  2  2  0
  2  3  1  0
  3  4  2  0
  4  5  1  0
  5  6  2  0
  5  7  1  0
  7  8  2  0
  8  9  1  0
  9 10  1  0
 10 11  1  0
 11 12  2  0
 12 13  1  0
 13 14  2  0
 14 15  1  0
 15 16  2  0
 16 17  1  0
 17 18  2  0
 18 19  1  0
 19 20  2  0
 14 21  1  0
  6  1  1  0
 21 11  1  0
  9  4  1  0
 20 15  1  0
  1 22  1  0
  2 23  1  0
  3 24  1  0
  6 25  1  0
  8 26  1  0
 10 27  1  0
 10 28  1  0
 16 29  1  0
 17 30  1  0
 19 31  1  0
 20 32  1  0
M  END
>  <Energy>  (1042) 
1108.9040282068684

>  <compound_id>  (1042) 
6250

>  <target_id>  (1042) 
1

>  <reference_id>  (1042) 
103

>  <inspiration_ids>  (1042) 
[82, 103]

>  <energy_score>  (1042) 
1048.5496161870037

>  <distance_score>  (1042) 
14.098923373693816

>  <path>  (1042) 
/opt/xchem-fragalysis-2/maxwin/BulkDock/SCRATCH/511018/C6250-P103/C6250-P103.minimised.mol

>  <scratch_subdir>  (1042) 
/opt/xchem-fragalysis-2/maxwin/BulkDock/SCRATCH/511018/C6250-P103

>  <fragmenstein_runtime>  (1042) 
13.393641948699951

>  <fragmenstein_outcome>  (1042) 
too moved

>  <fragmenstein_mode>  (1042) 
expansion

>  <fragmenstein_error>  (1042) 


$$$$
C6251-P82
     RDKit          3D

 35 38  0  0  0  0  0  0  0  0999 V2000
    9.9855  -10.6963   20.6105 C   0  0  0  0  0  0  0  0  0  0  0  0
    8.8591  -11.2095   19.9724 C   0  0  0  0  0  0  0  0  0  0  0  0
    7.6905  -11.5131   20.6924 C   0  0  0  0  0  0  0  0  0  0  0  0
    7.6732  -11.2597   22.0871 C   0  0  0  0  0  0  0  0  0  0  0  0
    8.8179  -10.7870   22.7384 C   0  0  0  0  0  0  0  0  0  0  0  0
    9.9804  -10.4935   21.9953 C   0  0  0  0  0  0  0  0  0  0  0  0
    8.5766  -10.6294   24.0732 N   0  0  0  0  0  0  0  0  0  0  0  0
    7.3042  -10.9293   24.2662 C   0  0  0  0  0  0  0  0  0  0  0  0
    6.6242  -11.1815   23.0943 N   0  0  0  0  0  0  0  0  0  0  0  0
    4.8550  -11.0663   22.7066 C   0  0  0  0  0  0  0  0  0  0  0  0
    3.3720  -12.3849   23.2503 C   0  0  0  0  0  0  0  0  0  0  0  0
    1.9423  -13.0999   24.2266 C   0  0  0  0  0  0  0  0  0  0  0  0
    1.2132  -14.1082   23.5598 N   0  0  0  0  0  0  0  0  0  0  0  0
   -0.1964  -14.0945   23.4468 N   0  0  0  0  0  0  0  0  0  0  0  0
   -0.6359  -14.1626   24.6907 C   0  0  0  0  0  0  0  0  0  0  0  0
   -2.0735  -14.9183   25.6283 C   0  0  0  0  0  0  0  0  0  0  0  0
   -2.8384  -15.9597   24.9286 C   0  0  0  0  0  0  0  0  0  0  0  0
   -3.2615  -17.2405   25.5822 C   0  0  0  0  0  0  0  0  0  0  0  0
   -3.0160  -17.6548   26.8820 N   0  0  0  0  0  0  0  0  0  0  0  0
   -2.4303  -16.7419   27.7126 C   0  0  0  0  0  0  0  0  0  0  0  0
   -2.0196  -15.4079   27.2591 C   0  0  0  0  0  0  0  0  0  0  0  0
    0.9242  -13.5739   25.5793 O   0  0  0  0  0  0  0  0  0  0  0  0
   10.8870  -10.4883   20.0414 H   0  0  0  0  0  0  0  0  0  0  0  0
    8.8885  -11.3908   18.8991 H   0  0  0  0  0  0  0  0  0  0  0  0
    6.8139  -11.8976   20.1816 H   0  0  0  0  0  0  0  0  0  0  0  0
   10.8571  -10.1126   22.5089 H   0  0  0  0  0  0  0  0  0  0  0  0
    6.8560  -10.9450   25.2431 H   0  0  0  0  0  0  0  0  0  0  0  0
    4.7727  -10.1004   23.1513 H   0  0  0  0  0  0  0  0  0  0  0  0
    5.0198  -11.1817   21.6573 H   0  0  0  0  0  0  0  0  0  0  0  0
    3.3414  -13.0061   22.3815 H   0  0  0  0  0  0  0  0  0  0  0  0
    2.6271  -11.6285   23.0329 H   0  0  0  0  0  0  0  0  0  0  0  0
   -3.2335  -15.7271   23.9461 H   0  0  0  0  0  0  0  0  0  0  0  0
   -3.9059  -17.9314   25.0388 H   0  0  0  0  0  0  0  0  0  0  0  0
   -2.2727  -17.0549   28.7398 H   0  0  0  0  0  0  0  0  0  0  0  0
   -1.4732  -14.9070   28.0318 H   0  0  0  0  0  0  0  0  0  0  0  0
  1  2  2  0
  2  3  1  0
  3  4  2  0
  4  5  1  0
  5  6  2  0
  5  7  1  0
  7  8  2  0
  8  9  1  0
  9 10  1  0
 10 11  1  0
 11 12  1  0
 12 13  2  0
 13 14  1  0
 14 15  2  0
 15 16  1  0
 16 17  2  0
 17 18  1  0
 18 19  2  0
 19 20  1  0
 20 21  2  0
 15 22  1  0
  6  1  1  0
 22 12  1  0
  9  4  1  0
 21 16  1  0
  1 23  1  0
  2 24  1  0
  3 25  1  0
  6 26  1  0
  8 27  1  0
 10 28  1  0
 10 29  1  0
 11 30  1  0
 11 31  1  0
 17 32  1  0
 18 33  1  0
 20 34  1  0
 21 35  1  0
M  END
>  <Energy>  (1043) 
546.82654491591268

>  <compound_id>  (1043) 
6251

>  <target_id>  (1043) 
1

>  <reference_id>  (1043) 
82

>  <inspiration_ids>  (1043) 
[82, 103]

>  <energy_score>  (1043) 
505.6493973568531

>  <distance_score>  (1043) 
13.693200928694464

>  <path>  (1043) 
/opt/xchem-fragalysis-2/maxwin/BulkDock/SCRATCH/511018/C6251-P82/C6251-P82.minimised.mol

>  <scratch_subdir>  (1043) 
/opt/xchem-fragalysis-2/maxwin/BulkDock/SCRATCH/511018/C6251-P82

>  <fragmenstein_runtime>  (1043) 
15.809664011001587

>  <fragmenstein_outcome>  (1043) 
too moved

>  <fragmenstein_mode>  (1043) 
expansion

>  <fragmenstein_error>  (1043) 


$$$$
C6251-P103
     RDKit          3D

 35 38  0  0  0  0  0  0  0  0999 V2000
   10.5102   -7.2081   22.1548 C   0  0  0  0  0  0  0  0  0  0  0  0
    9.5051   -7.5102   21.2583 C   0  0  0  0  0  0  0  0  0  0  0  0
    8.1829   -7.0903   21.4392 C   0  0  0  0  0  0  0  0  0  0  0  0
    7.7792   -6.7821   22.7452 C   0  0  0  0  0  0  0  0  0  0  0  0
    8.8134   -6.3149   23.5839 C   0  0  0  0  0  0  0  0  0  0  0  0
   10.1739   -6.5125   23.2973 C   0  0  0  0  0  0  0  0  0  0  0  0
    8.3046   -5.5617   24.5614 N   0  0  0  0  0  0  0  0  0  0  0  0
    7.0418   -5.5164   24.2287 C   0  0  0  0  0  0  0  0  0  0  0  0
    6.5527   -6.6379   23.5228 N   0  0  0  0  0  0  0  0  0  0  0  0
    4.8417   -7.3265   23.5968 C   0  0  0  0  0  0  0  0  0  0  0  0
    3.1335   -8.2802   22.8632 C   0  0  0  0  0  0  0  0  0  0  0  0
    2.1373   -9.6385   21.7208 C   0  0  0  0  0  0  0  0  0  0  0  0
    2.8977  -10.9568   22.4906 N   0  0  0  0  0  0  0  0  0  0  0  0
    1.9540  -11.9240   23.1687 N   0  0  0  0  0  0  0  0  0  0  0  0
    0.5714  -11.8557   22.8289 C   0  0  0  0  0  0  0  0  0  0  0  0
   -0.2841  -13.7034   23.2843 C   0  0  0  0  0  0  0  0  0  0  0  0
   -1.2541  -14.7585   22.9814 C   0  0  0  0  0  0  0  0  0  0  0  0
   -2.7688  -15.3624   23.7880 C   0  0  0  0  0  0  0  0  0  0  0  0
   -2.9498  -15.7243   24.9538 N   0  0  0  0  0  0  0  0  0  0  0  0
   -2.1864  -14.8292   25.4162 C   0  0  0  0  0  0  0  0  0  0  0  0
   -0.9749  -14.0522   24.6405 C   0  0  0  0  0  0  0  0  0  0  0  0
    0.4932  -10.4604   21.8026 O   0  0  0  0  0  0  0  0  0  0  0  0
   11.5422   -7.4807   21.9615 H   0  0  0  0  0  0  0  0  0  0  0  0
    9.7247   -8.1352   20.4027 H   0  0  0  0  0  0  0  0  0  0  0  0
    7.4850   -7.2398   20.6323 H   0  0  0  0  0  0  0  0  0  0  0  0
   10.9284   -6.1495   23.9860 H   0  0  0  0  0  0  0  0  0  0  0  0
    6.4805   -4.6237   24.4420 H   0  0  0  0  0  0  0  0  0  0  0  0
    5.2215   -8.0071   24.3783 H   0  0  0  0  0  0  0  0  0  0  0  0
    5.2065   -7.3515   22.5999 H   0  0  0  0  0  0  0  0  0  0  0  0
    4.1360   -8.7625   22.9550 H   0  0  0  0  0  0  0  0  0  0  0  0
    2.3795   -8.0502   23.6457 H   0  0  0  0  0  0  0  0  0  0  0  0
   -1.3226  -14.8805   21.9135 H   0  0  0  0  0  0  0  0  0  0  0  0
   -3.6948  -15.6573   23.2659 H   0  0  0  0  0  0  0  0  0  0  0  0
   -2.3072  -14.7175   26.4841 H   0  0  0  0  0  0  0  0  0  0  0  0
   -0.9547  -13.3458   25.4508 H   0  0  0  0  0  0  0  0  0  0  0  0
  1  2  2  0
  2  3  1  0
  3  4  2  0
  4  5  1  0
  5  6  2  0
  5  7  1  0
  7  8  2  0
  8  9  1  0
  9 10  1  0
 10 11  1  0
 11 12  1  0
 12 13  2  0
 13 14  1  0
 14 15  2  0
 15 16  1  0
 16 17  2  0
 17 18  1  0
 18 19  2  0
 19 20  1  0
 20 21  2  0
 15 22  1  0
  6  1  1  0
 22 12  1  0
  9  4  1  0
 21 16  1  0
  1 23  1  0
  2 24  1  0
  3 25  1  0
  6 26  1  0
  8 27  1  0
 10 28  1  0
 10 29  1  0
 11 30  1  0
 11 31  1  0
 17 32  1  0
 18 33  1  0
 20 34  1  0
 21 35  1  0
M  END
>  <Energy>  (1044) 
1007.5016238515291

>  <compound_id>  (1044) 
6251

>  <target_id>  (1044) 
1

>  <reference_id>  (1044) 
103

>  <inspiration_ids>  (1044) 
[82, 103]

>  <energy_score>  (1044) 
966.3244762924771

>  <distance_score>  (1044) 
13.500961723675468

>  <path>  (1044) 
/opt/xchem-fragalysis-2/maxwin/BulkDock/SCRATCH/511018/C6251-P103/C6251-P103.minimised.mol

>  <scratch_subdir>  (1044) 
/opt/xchem-fragalysis-2/maxwin/BulkDock/SCRATCH/511018/C6251-P103

>  <fragmenstein_runtime>  (1044) 
10.065408706665039

>  <fragmenstein_outcome>  (1044) 
too moved

>  <fragmenstein_mode>  (1044) 
expansion

>  <fragmenstein_error>  (1044) 


$$$$
C6256-P186
     RDKit          3D

 40 41  0  0  0  0  0  0  0  0999 V2000
   -4.1331  -13.3893   28.1273 C   0  0  0  0  0  0  0  0  0  0  0  0
   -2.7239  -12.8078   27.8453 C   0  0  0  0  0  0  0  0  0  0  0  0
   -2.6388  -12.7527   26.2528 C   0  0  0  0  0  0  0  0  0  0  0  0
   -2.3717  -14.0891   25.5892 N   0  0  0  0  0  0  0  0  0  0  0  0
   -1.6055  -14.4291   24.3684 C   0  0  0  0  0  0  0  0  0  0  0  0
   -0.9399  -13.7381   23.6470 O   0  0  0  0  0  0  0  0  0  0  0  0
   -1.6619  -15.9675   24.0790 C   0  0  0  0  0  0  0  0  0  0  0  0
   -1.6043  -16.5116   22.6201 C   0  0  0  0  0  0  0  0  0  0  0  0
   -0.7674  -17.6226   22.1980 C   0  0  0  0  0  0  0  0  0  0  0  0
   -0.9798  -17.9810   20.8804 C   0  0  0  0  0  0  0  0  0  0  0  0
   -2.1586  -16.9437   20.2417 S   0  0  0  0  0  0  0  0  0  0  0  0
   -2.4582  -16.1154   21.6686 N   0  0  0  0  0  0  0  0  0  0  0  0
   -2.5255  -11.7333   29.0877 N   0  0  0  0  0  0  0  0  0  0  0  0
   -1.3596  -10.4894   29.3312 C   0  0  0  0  0  0  0  0  0  0  0  0
   -0.4723  -10.0793   28.5914 O   0  0  0  0  0  0  0  0  0  0  0  0
   -1.2983   -9.7806   30.7360 C   0  0  0  0  0  0  0  0  0  0  0  0
   -0.7752   -8.3732   30.9852 C   0  0  0  0  0  0  0  0  0  0  0  0
   -1.1929   -7.7006   32.1473 C   0  0  0  0  0  0  0  0  0  0  0  0
   -0.7062   -6.4373   32.4630 C   0  0  0  0  0  0  0  0  0  0  0  0
    0.2150   -5.8747   31.6082 C   0  0  0  0  0  0  0  0  0  0  0  0
    0.6833   -6.5030   30.5125 N   0  0  0  0  0  0  0  0  0  0  0  0
    0.1889   -7.7367   30.2400 C   0  0  0  0  0  0  0  0  0  0  0  0
   -4.1066  -14.0570   28.9909 H   0  0  0  0  0  0  0  0  0  0  0  0
   -4.8904  -12.6297   28.3121 H   0  0  0  0  0  0  0  0  0  0  0  0
   -4.4981  -14.0159   27.3057 H   0  0  0  0  0  0  0  0  0  0  0  0
   -2.0862  -13.6441   28.1521 H   0  0  0  0  0  0  0  0  0  0  0  0
   -3.6001  -12.4379   25.8347 H   0  0  0  0  0  0  0  0  0  0  0  0
   -1.9052  -12.0967   25.8341 H   0  0  0  0  0  0  0  0  0  0  0  0
   -2.8853  -14.9057   25.8974 H   0  0  0  0  0  0  0  0  0  0  0  0
   -2.5485  -16.3821   24.5545 H   0  0  0  0  0  0  0  0  0  0  0  0
   -0.8037  -16.3907   24.6190 H   0  0  0  0  0  0  0  0  0  0  0  0
   -0.0502  -18.1204   22.8381 H   0  0  0  0  0  0  0  0  0  0  0  0
   -0.5035  -18.7541   20.2941 H   0  0  0  0  0  0  0  0  0  0  0  0
   -3.1450  -11.7622   29.8355 H   0  0  0  0  0  0  0  0  0  0  0  0
   -2.2414   -9.7107   31.2380 H   0  0  0  0  0  0  0  0  0  0  0  0
   -0.6675  -10.4354   31.2364 H   0  0  0  0  0  0  0  0  0  0  0  0
   -1.8933   -8.1713   32.8349 H   0  0  0  0  0  0  0  0  0  0  0  0
   -1.0365   -5.9124   33.3534 H   0  0  0  0  0  0  0  0  0  0  0  0
    0.6245   -4.8856   31.7905 H   0  0  0  0  0  0  0  0  0  0  0  0
    0.6735   -8.2446   29.4144 H   0  0  0  0  0  0  0  0  0  0  0  0
  1  2  1  0
  2  3  1  0
  3  4  1  0
  4  5  1  0
  5  6  2  0
  5  7  1  0
  7  8  1  0
  8  9  1  0
  9 10  2  0
 10 11  1  0
 11 12  1  0
  2 13  1  0
 13 14  1  0
 14 15  2  0
 14 16  1  0
 16 17  1  0
 17 18  2  0
 18 19  1  0
 19 20  2  0
 20 21  1  0
 21 22  2  0
 12  8  2  0
 22 17  1  0
  1 23  1  0
  1 24  1  0
  1 25  1  0
  2 26  1  0
  3 27  1  0
  3 28  1  0
  4 29  1  0
  7 30  1  0
  7 31  1  0
  9 32  1  0
 10 33  1  0
 13 34  1  0
 16 35  1  0
 16 36  1  0
 18 37  1  0
 19 38  1  0
 20 39  1  0
 22 40  1  0
M  END
>  <Energy>  (1045) 
142.35879792887863

>  <compound_id>  (1045) 
6256

>  <target_id>  (1045) 
1

>  <reference_id>  (1045) 
186

>  <inspiration_ids>  (1045) 
[186, 48]

>  <energy_score>  (1045) 
67.02144090103525

>  <distance_score>  (1045) 
11.890421764590231

>  <path>  (1045) 
/opt/xchem-fragalysis-2/maxwin/BulkDock/SCRATCH/511018/C6256-P186/C6256-P186.minimised.mol

>  <scratch_subdir>  (1045) 
/opt/xchem-fragalysis-2/maxwin/BulkDock/SCRATCH/511018/C6256-P186

>  <fragmenstein_runtime>  (1045) 
23.928166151046753

>  <fragmenstein_outcome>  (1045) 
too moved

>  <fragmenstein_mode>  (1045) 
expansion

>  <fragmenstein_error>  (1045) 


$$$$
C6256-P48
     RDKit          3D

 40 41  0  0  0  0  0  0  0  0999 V2000
   -5.6764   -9.7641   23.3792 C   0  0  0  0  0  0  0  0  0  0  0  0
   -5.8852  -10.1894   24.7858 C   0  0  0  0  0  0  0  0  0  0  0  0
   -5.2737  -11.9018   25.2524 C   0  0  0  0  0  0  0  0  0  0  0  0
   -5.8454  -13.3857   25.3450 N   0  0  0  0  0  0  0  0  0  0  0  0
   -5.2889  -14.6943   24.8336 C   0  0  0  0  0  0  0  0  0  0  0  0
   -4.2348  -14.9382   24.2999 O   0  0  0  0  0  0  0  0  0  0  0  0
   -6.4318  -16.1046   24.9551 C   0  0  0  0  0  0  0  0  0  0  0  0
   -6.5900  -17.5641   23.7666 C   0  0  0  0  0  0  0  0  0  0  0  0
   -7.2461  -17.7037   22.4065 C   0  0  0  0  0  0  0  0  0  0  0  0
   -7.1592  -18.9431   21.8863 C   0  0  0  0  0  0  0  0  0  0  0  0
   -7.2481  -19.8883   23.3157 S   0  0  0  0  0  0  0  0  0  0  0  0
   -6.2412  -18.8185   24.1694 N   0  0  0  0  0  0  0  0  0  0  0  0
   -5.1195   -9.1182   25.6377 N   0  0  0  0  0  0  0  0  0  0  0  0
   -3.5686   -8.4980   25.4812 C   0  0  0  0  0  0  0  0  0  0  0  0
   -2.7844   -8.7166   24.5894 O   0  0  0  0  0  0  0  0  0  0  0  0
   -2.8224   -7.4005   26.9743 C   0  0  0  0  0  0  0  0  0  0  0  0
   -1.8670   -7.4438   28.6920 C   0  0  0  0  0  0  0  0  0  0  0  0
   -1.0516   -8.4765   29.2876 C   0  0  0  0  0  0  0  0  0  0  0  0
   -0.6360   -8.4101   30.6393 C   0  0  0  0  0  0  0  0  0  0  0  0
   -0.4699   -7.2143   31.2634 C   0  0  0  0  0  0  0  0  0  0  0  0
   -0.6525   -6.1185   30.5641 N   0  0  0  0  0  0  0  0  0  0  0  0
   -1.2833   -6.2903   29.3451 C   0  0  0  0  0  0  0  0  0  0  0  0
   -6.1922  -10.4802   22.7473 H   0  0  0  0  0  0  0  0  0  0  0  0
   -6.0900   -8.7647   23.2078 H   0  0  0  0  0  0  0  0  0  0  0  0
   -4.6226   -9.7236   23.0931 H   0  0  0  0  0  0  0  0  0  0  0  0
   -6.9309  -10.1546   25.1052 H   0  0  0  0  0  0  0  0  0  0  0  0
   -5.2808  -11.7978   26.3352 H   0  0  0  0  0  0  0  0  0  0  0  0
   -4.2319  -11.9772   24.9269 H   0  0  0  0  0  0  0  0  0  0  0  0
   -6.7208  -13.5583   25.8118 H   0  0  0  0  0  0  0  0  0  0  0  0
   -7.4254  -15.6917   25.1181 H   0  0  0  0  0  0  0  0  0  0  0  0
   -6.1551  -16.5904   25.9034 H   0  0  0  0  0  0  0  0  0  0  0  0
   -7.6589  -16.9244   21.8038 H   0  0  0  0  0  0  0  0  0  0  0  0
   -7.3813  -19.2674   20.8854 H   0  0  0  0  0  0  0  0  0  0  0  0
   -5.5676   -8.6954   26.4381 H   0  0  0  0  0  0  0  0  0  0  0  0
   -2.5237   -6.4558   26.5723 H   0  0  0  0  0  0  0  0  0  0  0  0
   -1.9309   -7.7761   26.6110 H   0  0  0  0  0  0  0  0  0  0  0  0
   -0.8515   -9.4469   28.8324 H   0  0  0  0  0  0  0  0  0  0  0  0
   -0.5032   -9.3150   31.1987 H   0  0  0  0  0  0  0  0  0  0  0  0
   -0.1428   -7.1150   32.2898 H   0  0  0  0  0  0  0  0  0  0  0  0
   -1.3224   -5.2975   28.8501 H   0  0  0  0  0  0  0  0  0  0  0  0
  1  2  1  0
  2  3  1  0
  3  4  1  0
  4  5  1  0
  5  6  2  0
  5  7  1  0
  7  8  1  0
  8  9  1  0
  9 10  2  0
 10 11  1  0
 11 12  1  0
  2 13  1  0
 13 14  1  0
 14 15  2  0
 14 16  1  0
 16 17  1  0
 17 18  2  0
 18 19  1  0
 19 20  2  0
 20 21  1  0
 21 22  2  0
 12  8  2  0
 22 17  1  0
  1 23  1  0
  1 24  1  0
  1 25  1  0
  2 26  1  0
  3 27  1  0
  3 28  1  0
  4 29  1  0
  7 30  1  0
  7 31  1  0
  9 32  1  0
 10 33  1  0
 13 34  1  0
 16 35  1  0
 16 36  1  0
 18 37  1  0
 19 38  1  0
 20 39  1  0
 22 40  1  0
M  END
>  <Energy>  (1046) 
410.02275220531959

>  <compound_id>  (1046) 
6256

>  <target_id>  (1046) 
1

>  <reference_id>  (1046) 
48

>  <inspiration_ids>  (1046) 
[186, 48]

>  <energy_score>  (1046) 
334.685395177467

>  <distance_score>  (1046) 
11.033029706457492

>  <path>  (1046) 
/opt/xchem-fragalysis-2/maxwin/BulkDock/SCRATCH/511018/C6256-P48/C6256-P48.minimised.mol

>  <scratch_subdir>  (1046) 
/opt/xchem-fragalysis-2/maxwin/BulkDock/SCRATCH/511018/C6256-P48

>  <fragmenstein_runtime>  (1046) 
14.805219888687134

>  <fragmenstein_outcome>  (1046) 
too moved

>  <fragmenstein_mode>  (1046) 
expansion

>  <fragmenstein_error>  (1046) 


$$$$
C6290-P186
     RDKit          3D

 38 40  0  0  0  0  0  0  0  0999 V2000
    1.4804  -16.3384   28.4776 O   0  0  0  0  0  0  0  0  0  0  0  0
    1.8880  -15.4849   27.7354 C   0  0  0  0  0  0  0  0  0  0  0  0
    1.4083  -15.6018   26.1558 C   0  0  0  0  0  0  0  0  0  0  0  0
    0.8072  -16.8791   25.8144 O   0  0  0  0  0  0  0  0  0  0  0  0
    0.2448  -17.0878   24.5667 C   0  0  0  0  0  0  0  0  0  0  0  0
   -0.0523  -18.4048   24.0600 C   0  0  0  0  0  0  0  0  0  0  0  0
   -0.5794  -18.3551   22.7849 C   0  0  0  0  0  0  0  0  0  0  0  0
   -0.7667  -16.7095   22.3584 S   0  0  0  0  0  0  0  0  0  0  0  0
   -0.1048  -16.0795   23.7687 N   0  0  0  0  0  0  0  0  0  0  0  0
    2.7030  -14.2829   28.0101 N   0  0  0  0  0  0  0  0  0  0  0  0
    3.3682  -13.7975   29.2980 C   0  0  0  0  0  0  0  0  0  0  0  0
    2.7436  -12.5898   30.0700 C   0  0  0  0  0  0  0  0  0  0  0  0
    1.4016  -12.2871   30.2661 C   0  0  0  0  0  0  0  0  0  0  0  0
   -0.1469  -11.0455   30.1398 C   0  0  0  0  0  0  0  0  0  0  0  0
    0.1096   -9.6628   29.5968 C   0  0  0  0  0  0  0  0  0  0  0  0
   -0.3469   -8.3993   30.3334 C   0  0  0  0  0  0  0  0  0  0  0  0
    0.2821   -7.1510   30.1781 C   0  0  0  0  0  0  0  0  0  0  0  0
    0.0632   -6.0766   31.0483 C   0  0  0  0  0  0  0  0  0  0  0  0
   -0.7938   -6.2627   32.1056 C   0  0  0  0  0  0  0  0  0  0  0  0
   -1.4395   -7.4202   32.3129 N   0  0  0  0  0  0  0  0  0  0  0  0
   -1.1895   -8.4373   31.4452 C   0  0  0  0  0  0  0  0  0  0  0  0
    1.6004   -9.7393   29.2741 C   0  0  0  0  0  0  0  0  0  0  0  0
    2.7644  -11.2737   29.7486 C   0  0  0  0  0  0  0  0  0  0  0  0
    2.2920  -15.4449   25.5286 H   0  0  0  0  0  0  0  0  0  0  0  0
    0.6739  -14.8063   25.9981 H   0  0  0  0  0  0  0  0  0  0  0  0
    0.1592  -19.3191   24.5975 H   0  0  0  0  0  0  0  0  0  0  0  0
   -0.8462  -19.1708   22.1292 H   0  0  0  0  0  0  0  0  0  0  0  0
    2.9322  -13.8300   27.1334 H   0  0  0  0  0  0  0  0  0  0  0  0
    4.4047  -13.5539   29.0448 H   0  0  0  0  0  0  0  0  0  0  0  0
    3.3640  -14.6519   29.9829 H   0  0  0  0  0  0  0  0  0  0  0  0
    1.5811  -12.8355   29.2328 H   0  0  0  0  0  0  0  0  0  0  0  0
   -1.0395  -11.2463   30.6575 H   0  0  0  0  0  0  0  0  0  0  0  0
    1.0390   -6.9927   29.4175 H   0  0  0  0  0  0  0  0  0  0  0  0
    0.5773   -5.1316   30.9079 H   0  0  0  0  0  0  0  0  0  0  0  0
   -0.9896   -5.4753   32.8280 H   0  0  0  0  0  0  0  0  0  0  0  0
   -1.6981   -9.3457   31.7305 H   0  0  0  0  0  0  0  0  0  0  0  0
    1.8177   -9.0201   28.4873 H   0  0  0  0  0  0  0  0  0  0  0  0
    2.9576  -11.3020   30.9473 H   0  0  0  0  0  0  0  0  0  0  0  0
  1  2  2  0
  2  3  1  0
  3  4  1  0
  4  5  1  0
  5  6  1  0
  6  7  2  0
  7  8  1  0
  8  9  1  0
  2 10  1  0
 10 11  1  0
 11 12  1  0
 12 13  2  0
 13 14  1  0
 14 15  2  0
 15 16  1  0
 16 17  2  0
 17 18  1  0
 18 19  2  0
 19 20  1  0
 20 21  2  0
 15 22  1  0
 22 23  2  0
  9  5  2  0
 23 12  1  0
 21 16  1  0
  3 24  1  0
  3 25  1  0
  6 26  1  0
  7 27  1  0
 10 28  1  0
 11 29  1  0
 11 30  1  0
 13 31  1  0
 14 32  1  0
 17 33  1  0
 18 34  1  0
 19 35  1  0
 21 36  1  0
 22 37  1  0
 23 38  1  0
M  END
>  <Energy>  (1047) 
481.08701659733339

>  <compound_id>  (1047) 
6290

>  <target_id>  (1047) 
1

>  <reference_id>  (1047) 
186

>  <inspiration_ids>  (1047) 
[186, 48]

>  <energy_score>  (1047) 
408.0353243147664

>  <distance_score>  (1047) 
13.58993730058763

>  <path>  (1047) 
/opt/xchem-fragalysis-2/maxwin/BulkDock/SCRATCH/511018/C6290-P186/C6290-P186.minimised.mol

>  <scratch_subdir>  (1047) 
/opt/xchem-fragalysis-2/maxwin/BulkDock/SCRATCH/511018/C6290-P186

>  <fragmenstein_runtime>  (1047) 
15.163146734237671

>  <fragmenstein_outcome>  (1047) 
too moved

>  <fragmenstein_mode>  (1047) 
expansion

>  <fragmenstein_error>  (1047) 


$$$$
C6290-P48
     RDKit          3D

 38 40  0  0  0  0  0  0  0  0999 V2000
   -1.7443  -16.6617   22.7430 O   0  0  0  0  0  0  0  0  0  0  0  0
   -2.4593  -16.0055   23.4618 C   0  0  0  0  0  0  0  0  0  0  0  0
   -4.1020  -16.4545   23.3417 C   0  0  0  0  0  0  0  0  0  0  0  0
   -4.6326  -16.6873   21.8462 O   0  0  0  0  0  0  0  0  0  0  0  0
   -5.6968  -17.8316   21.3263 C   0  0  0  0  0  0  0  0  0  0  0  0
   -5.3562  -19.1722   20.6540 C   0  0  0  0  0  0  0  0  0  0  0  0
   -5.3253  -19.0950   19.3092 C   0  0  0  0  0  0  0  0  0  0  0  0
   -6.5502  -18.1155   19.0469 S   0  0  0  0  0  0  0  0  0  0  0  0
   -6.6298  -17.3649   20.5282 N   0  0  0  0  0  0  0  0  0  0  0  0
   -2.1265  -14.8834   24.4093 N   0  0  0  0  0  0  0  0  0  0  0  0
   -0.7813  -14.3000   24.8270 C   0  0  0  0  0  0  0  0  0  0  0  0
   -0.4463  -12.9684   25.6054 C   0  0  0  0  0  0  0  0  0  0  0  0
   -1.6214  -12.1467   26.9019 C   0  0  0  0  0  0  0  0  0  0  0  0
   -0.9918  -10.4641   27.8332 C   0  0  0  0  0  0  0  0  0  0  0  0
    0.7870   -9.8759   27.8762 C   0  0  0  0  0  0  0  0  0  0  0  0
    1.2207   -8.7129   28.7909 C   0  0  0  0  0  0  0  0  0  0  0  0
    0.4347   -8.2526   29.8856 C   0  0  0  0  0  0  0  0  0  0  0  0
    0.6852   -7.0065   30.4863 C   0  0  0  0  0  0  0  0  0  0  0  0
    1.7098   -6.2226   29.9692 C   0  0  0  0  0  0  0  0  0  0  0  0
    2.5083   -6.6118   28.9406 N   0  0  0  0  0  0  0  0  0  0  0  0
    2.2519   -7.8317   28.3811 C   0  0  0  0  0  0  0  0  0  0  0  0
    1.8982  -10.5651   26.1933 C   0  0  0  0  0  0  0  0  0  0  0  0
    1.1612  -11.9927   25.1242 C   0  0  0  0  0  0  0  0  0  0  0  0
   -4.3670  -17.2993   23.9793 H   0  0  0  0  0  0  0  0  0  0  0  0
   -4.6151  -15.6244   23.8340 H   0  0  0  0  0  0  0  0  0  0  0  0
   -4.7436  -20.0063   20.9420 H   0  0  0  0  0  0  0  0  0  0  0  0
   -4.8041  -19.6869   18.6153 H   0  0  0  0  0  0  0  0  0  0  0  0
   -2.9610  -14.6160   24.9144 H   0  0  0  0  0  0  0  0  0  0  0  0
   -0.3210  -15.0967   25.4233 H   0  0  0  0  0  0  0  0  0  0  0  0
   -0.2079  -14.2536   23.8938 H   0  0  0  0  0  0  0  0  0  0  0  0
   -2.5913  -12.5910   27.1324 H   0  0  0  0  0  0  0  0  0  0  0  0
   -1.3640  -10.2539   28.8627 H   0  0  0  0  0  0  0  0  0  0  0  0
   -0.4027   -8.8379   30.2450 H   0  0  0  0  0  0  0  0  0  0  0  0
    0.0778   -6.6509   31.3103 H   0  0  0  0  0  0  0  0  0  0  0  0
    1.9280   -5.2404   30.3792 H   0  0  0  0  0  0  0  0  0  0  0  0
    2.8620   -8.0450   27.5072 H   0  0  0  0  0  0  0  0  0  0  0  0
    2.8870  -10.1443   25.9589 H   0  0  0  0  0  0  0  0  0  0  0  0
    1.7776  -12.3971   24.3195 H   0  0  0  0  0  0  0  0  0  0  0  0
  1  2  2  0
  2  3  1  0
  3  4  1  0
  4  5  1  0
  5  6  1  0
  6  7  2  0
  7  8  1  0
  8  9  1  0
  2 10  1  0
 10 11  1  0
 11 12  1  0
 12 13  2  0
 13 14  1  0
 14 15  2  0
 15 16  1  0
 16 17  2  0
 17 18  1  0
 18 19  2  0
 19 20  1  0
 20 21  2  0
 15 22  1  0
 22 23  2  0
  9  5  2  0
 23 12  1  0
 21 16  1  0
  3 24  1  0
  3 25  1  0
  6 26  1  0
  7 27  1  0
 10 28  1  0
 11 29  1  0
 11 30  1  0
 13 31  1  0
 14 32  1  0
 17 33  1  0
 18 34  1  0
 19 35  1  0
 21 36  1  0
 22 37  1  0
 23 38  1  0
M  END
>  <Energy>  (1048) 
785.25355007234702

>  <compound_id>  (1048) 
6290

>  <target_id>  (1048) 
1

>  <reference_id>  (1048) 
48

>  <inspiration_ids>  (1048) 
[186, 48]

>  <energy_score>  (1048) 
712.2018577897768

>  <distance_score>  (1048) 
11.963325553717434

>  <path>  (1048) 
/opt/xchem-fragalysis-2/maxwin/BulkDock/SCRATCH/511018/C6290-P48/C6290-P48.minimised.mol

>  <scratch_subdir>  (1048) 
/opt/xchem-fragalysis-2/maxwin/BulkDock/SCRATCH/511018/C6290-P48

>  <fragmenstein_runtime>  (1048) 
19.195833444595337

>  <fragmenstein_outcome>  (1048) 
too moved

>  <fragmenstein_mode>  (1048) 
expansion

>  <fragmenstein_error>  (1048) 


$$$$
C6292-P186
     RDKit          3D

 38 40  0  0  0  0  0  0  0  0999 V2000
   -3.0642   -7.7945   23.8408 C   0  0  0  0  0  0  0  0  0  0  0  0
   -4.4887   -7.9674   23.2948 C   0  0  0  0  0  0  0  0  0  0  0  0
   -5.7923   -6.5396   24.4078 N   0  0  0  0  0  0  0  0  0  0  0  0
   -5.8044   -5.7916   26.9598 S   0  0  0  0  0  0  0  0  0  0  0  0
   -7.0296   -6.0786   27.6989 O   0  0  0  0  0  0  0  0  0  0  0  0
   -4.9894   -4.0639   26.8737 O   0  0  0  0  0  0  0  0  0  0  0  0
   -4.8742   -3.7207   28.1408 C   0  0  0  0  0  0  0  0  0  0  0  0
   -3.9922   -2.4284   27.2087 C   0  0  0  0  0  0  0  0  0  0  0  0
   -2.6612   -1.8401   27.2747 C   0  0  0  0  0  0  0  0  0  0  0  0
   -2.2414   -1.7688   28.4812 N   0  0  0  0  0  0  0  0  0  0  0  0
   -2.7641   -3.1571   29.1021 S   0  0  0  0  0  0  0  0  0  0  0  0
   -4.1266   -9.7589   22.1234 C   0  0  0  0  0  0  0  0  0  0  0  0
   -5.0991  -10.8614   21.4545 C   0  0  0  0  0  0  0  0  0  0  0  0
   -6.5294  -12.0359   20.7854 C   0  0  0  0  0  0  0  0  0  0  0  0
   -7.1180  -12.8480   19.5415 C   0  0  0  0  0  0  0  0  0  0  0  0
   -8.5927  -14.2548   19.8820 C   0  0  0  0  0  0  0  0  0  0  0  0
   -8.2268  -15.9996   20.6794 C   0  0  0  0  0  0  0  0  0  0  0  0
   -7.1763  -17.3091   20.2717 C   0  0  0  0  0  0  0  0  0  0  0  0
   -7.2763  -17.7040   18.9142 C   0  0  0  0  0  0  0  0  0  0  0  0
   -8.3407  -16.8384   18.0648 N   0  0  0  0  0  0  0  0  0  0  0  0
   -9.0158  -15.4618   18.7668 C   0  0  0  0  0  0  0  0  0  0  0  0
   -5.3760  -12.2025   19.5284 C   0  0  0  0  0  0  0  0  0  0  0  0
   -4.4168  -10.8566   20.5800 C   0  0  0  0  0  0  0  0  0  0  0  0
   -2.3615   -8.4173   23.2855 H   0  0  0  0  0  0  0  0  0  0  0  0
   -2.7164   -6.7691   23.7089 H   0  0  0  0  0  0  0  0  0  0  0  0
   -3.0393   -8.0876   24.8832 H   0  0  0  0  0  0  0  0  0  0  0  0
   -4.4362   -7.2995   22.3938 H   0  0  0  0  0  0  0  0  0  0  0  0
   -4.8317   -6.1881   24.1937 H   0  0  0  0  0  0  0  0  0  0  0  0
   -4.3205   -2.3614   26.1814 H   0  0  0  0  0  0  0  0  0  0  0  0
   -2.0990   -1.3997   26.4754 H   0  0  0  0  0  0  0  0  0  0  0  0
   -6.1192  -11.3589   22.5174 H   0  0  0  0  0  0  0  0  0  0  0  0
   -7.0457  -12.3408   21.7456 H   0  0  0  0  0  0  0  0  0  0  0  0
   -8.2449  -16.3656   21.7064 H   0  0  0  0  0  0  0  0  0  0  0  0
   -6.8332  -17.9785   21.0578 H   0  0  0  0  0  0  0  0  0  0  0  0
   -6.9383  -18.6357   18.5033 H   0  0  0  0  0  0  0  0  0  0  0  0
  -10.0491  -15.7042   19.0009 H   0  0  0  0  0  0  0  0  0  0  0  0
   -4.9500  -12.1734   18.5064 H   0  0  0  0  0  0  0  0  0  0  0  0
   -3.7627  -10.3810   19.7121 H   0  0  0  0  0  0  0  0  0  0  0  0
  1  2  1  0
  2  3  1  0
  3  4  1  0
  4  5  2  0
  4  6  2  0
  4  7  1  0
  7  8  2  0
  8  9  1  0
  9 10  2  0
 10 11  1  0
  2 12  1  0
 12 13  2  0
 13 14  1  0
 14 15  2  0
 15 16  1  0
 16 17  2  0
 17 18  1  0
 18 19  2  0
 19 20  1  0
 20 21  2  0
 15 22  1  0
 22 23  2  0
 11  7  1  0
 23 12  1  0
 21 16  1  0
  1 24  1  0
  1 25  1  0
  1 26  1  0
  2 27  1  0
  3 28  1  0
  8 29  1  0
  9 30  1  0
 13 31  1  0
 14 32  1  0
 17 33  1  0
 18 34  1  0
 19 35  1  0
 21 36  1  0
 22 37  1  0
 23 38  1  0
M  END
>  <Energy>  (1049) 
2702.5242508993961

>  <compound_id>  (1049) 
6292

>  <target_id>  (1049) 
1

>  <reference_id>  (1049) 
186

>  <inspiration_ids>  (1049) 
[186, 48]

>  <energy_score>  (1049) 
2679.28350977348

>  <distance_score>  (1049) 
10.640332989679825

>  <path>  (1049) 
/opt/xchem-fragalysis-2/maxwin/BulkDock/SCRATCH/511018/C6292-P186/C6292-P186.minimised.mol

>  <scratch_subdir>  (1049) 
/opt/xchem-fragalysis-2/maxwin/BulkDock/SCRATCH/511018/C6292-P186

>  <fragmenstein_runtime>  (1049) 
14.484049797058105

>  <fragmenstein_outcome>  (1049) 
too moved

>  <fragmenstein_mode>  (1049) 
expansion

>  <fragmenstein_error>  (1049) 


$$$$
C6292-P48
     RDKit          3D

 38 40  0  0  0  0  0  0  0  0999 V2000
   -5.5622  -13.9463   23.7256 C   0  0  0  0  0  0  0  0  0  0  0  0
   -4.3214  -15.1843   23.4140 C   0  0  0  0  0  0  0  0  0  0  0  0
   -2.8962  -15.5750   24.8083 N   0  0  0  0  0  0  0  0  0  0  0  0
   -1.8699  -14.0342   25.8827 S   0  0  0  0  0  0  0  0  0  0  0  0
   -0.5183  -14.0617   25.3524 O   0  0  0  0  0  0  0  0  0  0  0  0
   -2.5839  -12.7636   25.8602 O   0  0  0  0  0  0  0  0  0  0  0  0
   -1.5771  -14.0872   27.6479 C   0  0  0  0  0  0  0  0  0  0  0  0
   -0.3848  -13.9872   28.3570 C   0  0  0  0  0  0  0  0  0  0  0  0
   -0.5875  -13.3339   29.6119 C   0  0  0  0  0  0  0  0  0  0  0  0
   -1.8400  -13.0414   29.9436 N   0  0  0  0  0  0  0  0  0  0  0  0
   -2.8180  -13.4842   28.6799 S   0  0  0  0  0  0  0  0  0  0  0  0
   -4.9020  -16.8653   22.2786 C   0  0  0  0  0  0  0  0  0  0  0  0
   -6.1846  -17.8246   22.9455 C   0  0  0  0  0  0  0  0  0  0  0  0
   -7.0231  -18.9344   22.4694 C   0  0  0  0  0  0  0  0  0  0  0  0
   -6.8918  -19.4681   21.1858 C   0  0  0  0  0  0  0  0  0  0  0  0
   -7.5881  -20.7303   20.7011 C   0  0  0  0  0  0  0  0  0  0  0  0
   -7.9711  -21.7696   21.5759 C   0  0  0  0  0  0  0  0  0  0  0  0
   -8.6509  -22.9172   21.1312 C   0  0  0  0  0  0  0  0  0  0  0  0
   -8.9180  -23.0485   19.7876 C   0  0  0  0  0  0  0  0  0  0  0  0
   -8.5573  -22.1167   18.8880 N   0  0  0  0  0  0  0  0  0  0  0  0
   -7.9570  -20.9779   19.3697 C   0  0  0  0  0  0  0  0  0  0  0  0
   -6.0452  -18.6947   20.4057 C   0  0  0  0  0  0  0  0  0  0  0  0
   -5.2287  -17.5331   20.9251 C   0  0  0  0  0  0  0  0  0  0  0  0
   -5.4289  -12.9454   24.0891 H   0  0  0  0  0  0  0  0  0  0  0  0
   -6.4457  -14.4950   24.0774 H   0  0  0  0  0  0  0  0  0  0  0  0
   -6.0171  -13.3255   22.9602 H   0  0  0  0  0  0  0  0  0  0  0  0
   -3.3699  -14.7242   23.2774 H   0  0  0  0  0  0  0  0  0  0  0  0
   -3.3244  -16.1304   25.5517 H   0  0  0  0  0  0  0  0  0  0  0  0
    0.5890  -14.1804   27.9251 H   0  0  0  0  0  0  0  0  0  0  0  0
    0.1927  -13.0495   30.3078 H   0  0  0  0  0  0  0  0  0  0  0  0
   -6.5096  -17.5230   23.9603 H   0  0  0  0  0  0  0  0  0  0  0  0
   -7.7038  -19.3752   23.1889 H   0  0  0  0  0  0  0  0  0  0  0  0
   -7.7426  -21.6849   22.6359 H   0  0  0  0  0  0  0  0  0  0  0  0
   -8.9472  -23.6875   21.8343 H   0  0  0  0  0  0  0  0  0  0  0  0
   -9.4131  -23.9284   19.3924 H   0  0  0  0  0  0  0  0  0  0  0  0
   -7.6814  -20.2879   18.5830 H   0  0  0  0  0  0  0  0  0  0  0  0
   -5.8366  -18.9854   19.3756 H   0  0  0  0  0  0  0  0  0  0  0  0
   -4.4120  -17.4597   20.1692 H   0  0  0  0  0  0  0  0  0  0  0  0
  1  2  1  0
  2  3  1  0
  3  4  1  0
  4  5  2  0
  4  6  2  0
  4  7  1  0
  7  8  2  0
  8  9  1  0
  9 10  2  0
 10 11  1  0
  2 12  1  0
 12 13  2  0
 13 14  1  0
 14 15  2  0
 15 16  1  0
 16 17  2  0
 17 18  1  0
 18 19  2  0
 19 20  1  0
 20 21  2  0
 15 22  1  0
 22 23  2  0
 11  7  1  0
 23 12  1  0
 21 16  1  0
  1 24  1  0
  1 25  1  0
  1 26  1  0
  2 27  1  0
  3 28  1  0
  8 29  1  0
  9 30  1  0
 13 31  1  0
 14 32  1  0
 17 33  1  0
 18 34  1  0
 19 35  1  0
 21 36  1  0
 22 37  1  0
 23 38  1  0
M  END
>  <Energy>  (1050) 
405.42710358234962

>  <compound_id>  (1050) 
6292

>  <target_id>  (1050) 
1

>  <reference_id>  (1050) 
48

>  <inspiration_ids>  (1050) 
[186, 48]

>  <energy_score>  (1050) 
382.18636245640766

>  <distance_score>  (1050) 
13.003622334787593

>  <path>  (1050) 
/opt/xchem-fragalysis-2/maxwin/BulkDock/SCRATCH/511018/C6292-P48/C6292-P48.minimised.mol

>  <scratch_subdir>  (1050) 
/opt/xchem-fragalysis-2/maxwin/BulkDock/SCRATCH/511018/C6292-P48

>  <fragmenstein_runtime>  (1050) 
13.307897090911865

>  <fragmenstein_outcome>  (1050) 
too moved

>  <fragmenstein_mode>  (1050) 
expansion

>  <fragmenstein_error>  (1050) 


$$$$
C6302-P94
     RDKit          3D

 40 43  0  0  0  0  0  0  0  0999 V2000
   -4.3046  -21.6575   19.4056 C   0  0  0  0  0  0  0  0  0  0  0  0
   -5.0575  -20.4560   19.8310 C   0  0  0  0  0  0  0  0  0  0  0  0
   -5.3302  -19.3898   19.0940 N   0  0  0  0  0  0  0  0  0  0  0  0
   -6.0524  -18.5423   19.8937 C   0  0  0  0  0  0  0  0  0  0  0  0
   -6.7496  -17.2700   19.6514 C   0  0  0  0  0  0  0  0  0  0  0  0
   -7.8030  -16.2166   20.4742 C   0  0  0  0  0  0  0  0  0  0  0  0
   -8.4207  -14.3338   19.7425 C   0  0  0  0  0  0  0  0  0  0  0  0
   -8.9340  -13.5741   20.4665 O   0  0  0  0  0  0  0  0  0  0  0  0
   -8.0415  -13.8917   18.1485 N   0  0  0  0  0  0  0  0  0  0  0  0
   -8.3787  -12.4124   17.2066 C   0  0  0  0  0  0  0  0  0  0  0  0
   -9.0432  -12.0778   15.2995 C   0  0  0  0  0  0  0  0  0  0  0  0
   -9.9233  -12.8082   14.5893 N   0  0  0  0  0  0  0  0  0  0  0  0
  -10.0042  -12.4305   13.2694 N   0  0  0  0  0  0  0  0  0  0  0  0
   -9.2169  -11.4103   13.0698 C   0  0  0  0  0  0  0  0  0  0  0  0
   -8.7178  -10.9936   14.2866 N   0  0  0  0  0  0  0  0  0  0  0  0
   -7.9572   -9.7324   14.2685 C   0  0  0  0  0  0  0  0  0  0  0  0
   -7.0766   -9.6226   13.0030 C   0  0  0  0  0  0  0  0  0  0  0  0
   -7.8826   -9.6990   11.8003 N   0  0  0  0  0  0  0  0  0  0  0  0
   -8.8034  -10.8340   11.7467 C   0  0  0  0  0  0  0  0  0  0  0  0
   -7.6308  -17.1705   21.6176 C   0  0  0  0  0  0  0  0  0  0  0  0
   -6.9978  -18.4998   21.9999 C   0  0  0  0  0  0  0  0  0  0  0  0
   -6.2403  -19.1432   21.0977 C   0  0  0  0  0  0  0  0  0  0  0  0
   -5.5803  -20.3267   21.0893 N   0  0  0  0  0  0  0  0  0  0  0  0
   -3.4113  -21.7915   20.0233 H   0  0  0  0  0  0  0  0  0  0  0  0
   -3.9872  -21.5633   18.3624 H   0  0  0  0  0  0  0  0  0  0  0  0
   -4.9273  -22.5533   19.4924 H   0  0  0  0  0  0  0  0  0  0  0  0
   -6.9701  -17.3405   18.5727 H   0  0  0  0  0  0  0  0  0  0  0  0
   -7.6851  -14.7167   17.6624 H   0  0  0  0  0  0  0  0  0  0  0  0
   -7.8787  -13.1427   16.6082 H   0  0  0  0  0  0  0  0  0  0  0  0
   -9.3442  -12.3043   17.7321 H   0  0  0  0  0  0  0  0  0  0  0  0
   -7.3390   -9.6136   15.1604 H   0  0  0  0  0  0  0  0  0  0  0  0
   -8.7108   -8.9384   14.2842 H   0  0  0  0  0  0  0  0  0  0  0  0
   -6.3148  -10.4093   12.9757 H   0  0  0  0  0  0  0  0  0  0  0  0
   -6.5436   -8.6661   13.0222 H   0  0  0  0  0  0  0  0  0  0  0  0
   -7.3315   -9.6421   10.9480 H   0  0  0  0  0  0  0  0  0  0  0  0
   -9.6974  -10.5389   11.1873 H   0  0  0  0  0  0  0  0  0  0  0  0
   -8.3228  -11.6400   11.1786 H   0  0  0  0  0  0  0  0  0  0  0  0
   -7.8121  -16.8251   22.5892 H   0  0  0  0  0  0  0  0  0  0  0  0
   -7.0311  -18.8911   22.9964 H   0  0  0  0  0  0  0  0  0  0  0  0
   -5.5374  -21.0032   21.8371 H   0  0  0  0  0  0  0  0  0  0  0  0
  1  2  1  0
  2  3  2  0
  3  4  1  0
  4  5  2  0
  5  6  1  0
  6  7  1  0
  7  8  2  0
  7  9  1  0
  9 10  1  0
 10 11  1  0
 11 12  2  0
 12 13  1  0
 13 14  2  0
 14 15  1  0
 15 16  1  0
 16 17  1  0
 17 18  1  0
 18 19  1  0
  6 20  2  0
 20 21  1  0
 21 22  2  0
 22 23  1  0
 23  2  1  0
 22  4  1  0
 15 11  1  0
 19 14  1  0
  1 24  1  0
  1 25  1  0
  1 26  1  0
  5 27  1  0
  9 28  1  0
 10 29  1  0
 10 30  1  0
 16 31  1  0
 16 32  1  0
 17 33  1  0
 17 34  1  0
 18 35  1  0
 19 36  1  0
 19 37  1  0
 20 38  1  0
 21 39  1  0
 23 40  1  0
M  END
>  <Energy>  (1051) 
455.0012517495997

>  <compound_id>  (1051) 
6302

>  <target_id>  (1051) 
1

>  <reference_id>  (1051) 
94

>  <inspiration_ids>  (1051) 
[94, 65]

>  <energy_score>  (1051) 
417.11399009766996

>  <distance_score>  (1051) 
13.05613494175909

>  <path>  (1051) 
/opt/xchem-fragalysis-2/maxwin/BulkDock/SCRATCH/511018/C6302-P94/C6302-P94.minimised.mol

>  <scratch_subdir>  (1051) 
/opt/xchem-fragalysis-2/maxwin/BulkDock/SCRATCH/511018/C6302-P94

>  <fragmenstein_runtime>  (1051) 
25.54372811317444

>  <fragmenstein_outcome>  (1051) 
too moved

>  <fragmenstein_mode>  (1051) 
expansion

>  <fragmenstein_error>  (1051) 


$$$$
C6302-P65
     RDKit          3D

 40 43  0  0  0  0  0  0  0  0999 V2000
   -6.9596  -23.3456   23.2726 C   0  0  0  0  0  0  0  0  0  0  0  0
   -6.1169  -22.1847   22.9794 C   0  0  0  0  0  0  0  0  0  0  0  0
   -6.5344  -20.9407   22.8927 N   0  0  0  0  0  0  0  0  0  0  0  0
   -6.0935  -20.5812   21.6570 C   0  0  0  0  0  0  0  0  0  0  0  0
   -6.6136  -19.6340   20.7629 C   0  0  0  0  0  0  0  0  0  0  0  0
   -6.2620  -19.7707   19.4099 C   0  0  0  0  0  0  0  0  0  0  0  0
   -7.1946  -19.2819   18.3187 C   0  0  0  0  0  0  0  0  0  0  0  0
   -7.9034  -20.1363   17.8216 O   0  0  0  0  0  0  0  0  0  0  0  0
   -7.0929  -17.8046   18.0376 N   0  0  0  0  0  0  0  0  0  0  0  0
   -7.9437  -16.6964   16.6985 C   0  0  0  0  0  0  0  0  0  0  0  0
   -7.7171  -15.7986   14.9308 C   0  0  0  0  0  0  0  0  0  0  0  0
   -8.3573  -14.6322   14.6763 N   0  0  0  0  0  0  0  0  0  0  0  0
   -8.7038  -14.3326   13.4124 N   0  0  0  0  0  0  0  0  0  0  0  0
   -8.0936  -15.1936   12.6723 C   0  0  0  0  0  0  0  0  0  0  0  0
   -7.4032  -16.1233   13.4839 N   0  0  0  0  0  0  0  0  0  0  0  0
   -6.1598  -16.5552   12.8198 C   0  0  0  0  0  0  0  0  0  0  0  0
   -5.5224  -15.5127   11.8114 C   0  0  0  0  0  0  0  0  0  0  0  0
   -6.3992  -14.5674   11.0977 N   0  0  0  0  0  0  0  0  0  0  0  0
   -7.7950  -14.9944   11.2255 C   0  0  0  0  0  0  0  0  0  0  0  0
   -5.2391  -20.6620   19.0385 C   0  0  0  0  0  0  0  0  0  0  0  0
   -4.5799  -21.4831   19.9596 C   0  0  0  0  0  0  0  0  0  0  0  0
   -5.1010  -21.4626   21.2402 C   0  0  0  0  0  0  0  0  0  0  0  0
   -4.9422  -22.3286   22.2968 N   0  0  0  0  0  0  0  0  0  0  0  0
   -7.9380  -23.2076   22.8090 H   0  0  0  0  0  0  0  0  0  0  0  0
   -7.0758  -23.4187   24.3463 H   0  0  0  0  0  0  0  0  0  0  0  0
   -6.5382  -24.2605   22.8533 H   0  0  0  0  0  0  0  0  0  0  0  0
   -7.4104  -18.9901   21.0994 H   0  0  0  0  0  0  0  0  0  0  0  0
   -6.3357  -17.4174   18.5829 H   0  0  0  0  0  0  0  0  0  0  0  0
   -7.0541  -16.0600   16.6881 H   0  0  0  0  0  0  0  0  0  0  0  0
   -8.3694  -17.4969   16.1878 H   0  0  0  0  0  0  0  0  0  0  0  0
   -6.4285  -17.4581   12.2621 H   0  0  0  0  0  0  0  0  0  0  0  0
   -5.4083  -16.8107   13.5568 H   0  0  0  0  0  0  0  0  0  0  0  0
   -4.9661  -16.0889   11.0616 H   0  0  0  0  0  0  0  0  0  0  0  0
   -4.7606  -14.9252   12.3330 H   0  0  0  0  0  0  0  0  0  0  0  0
   -6.3333  -13.6531   11.5544 H   0  0  0  0  0  0  0  0  0  0  0  0
   -8.4509  -14.2269   10.8012 H   0  0  0  0  0  0  0  0  0  0  0  0
   -7.9710  -15.9181   10.6624 H   0  0  0  0  0  0  0  0  0  0  0  0
   -4.9857  -20.7870   17.9883 H   0  0  0  0  0  0  0  0  0  0  0  0
   -3.8384  -22.2064   19.6404 H   0  0  0  0  0  0  0  0  0  0  0  0
   -4.4248  -23.1904   22.2252 H   0  0  0  0  0  0  0  0  0  0  0  0
  1  2  1  0
  2  3  2  0
  3  4  1  0
  4  5  2  0
  5  6  1  0
  6  7  1  0
  7  8  2  0
  7  9  1  0
  9 10  1  0
 10 11  1  0
 11 12  2  0
 12 13  1  0
 13 14  2  0
 14 15  1  0
 15 16  1  0
 16 17  1  0
 17 18  1  0
 18 19  1  0
  6 20  2  0
 20 21  1  0
 21 22  2  0
 22 23  1  0
 23  2  1  0
 22  4  1  0
 15 11  1  0
 19 14  1  0
  1 24  1  0
  1 25  1  0
  1 26  1  0
  5 27  1  0
  9 28  1  0
 10 29  1  0
 10 30  1  0
 16 31  1  0
 16 32  1  0
 17 33  1  0
 17 34  1  0
 18 35  1  0
 19 36  1  0
 19 37  1  0
 20 38  1  0
 21 39  1  0
 23 40  1  0
M  END
>  <Energy>  (1052) 
278.28231330144547

>  <compound_id>  (1052) 
6302

>  <target_id>  (1052) 
1

>  <reference_id>  (1052) 
65

>  <inspiration_ids>  (1052) 
[94, 65]

>  <energy_score>  (1052) 
240.39505164953505

>  <distance_score>  (1052) 
14.204522484591934

>  <path>  (1052) 
/opt/xchem-fragalysis-2/maxwin/BulkDock/SCRATCH/511018/C6302-P65/C6302-P65.minimised.mol

>  <scratch_subdir>  (1052) 
/opt/xchem-fragalysis-2/maxwin/BulkDock/SCRATCH/511018/C6302-P65

>  <fragmenstein_runtime>  (1052) 
33.45922660827637

>  <fragmenstein_outcome>  (1052) 
too moved

>  <fragmenstein_mode>  (1052) 
expansion

>  <fragmenstein_error>  (1052) 


$$$$
C6302-P94
     RDKit          3D

 40 43  0  0  0  0  0  0  0  0999 V2000
   -4.3046  -21.6575   19.4056 C   0  0  0  0  0  0  0  0  0  0  0  0
   -5.0575  -20.4560   19.8310 C   0  0  0  0  0  0  0  0  0  0  0  0
   -5.3302  -19.3898   19.0940 N   0  0  0  0  0  0  0  0  0  0  0  0
   -6.0524  -18.5423   19.8937 C   0  0  0  0  0  0  0  0  0  0  0  0
   -6.7496  -17.2700   19.6514 C   0  0  0  0  0  0  0  0  0  0  0  0
   -7.8030  -16.2166   20.4742 C   0  0  0  0  0  0  0  0  0  0  0  0
   -8.4207  -14.3338   19.7425 C   0  0  0  0  0  0  0  0  0  0  0  0
   -8.9340  -13.5741   20.4665 O   0  0  0  0  0  0  0  0  0  0  0  0
   -8.0415  -13.8917   18.1485 N   0  0  0  0  0  0  0  0  0  0  0  0
   -8.3787  -12.4124   17.2066 C   0  0  0  0  0  0  0  0  0  0  0  0
   -9.0432  -12.0778   15.2995 C   0  0  0  0  0  0  0  0  0  0  0  0
   -9.9233  -12.8082   14.5893 N   0  0  0  0  0  0  0  0  0  0  0  0
  -10.0042  -12.4305   13.2694 N   0  0  0  0  0  0  0  0  0  0  0  0
   -9.2169  -11.4103   13.0698 C   0  0  0  0  0  0  0  0  0  0  0  0
   -8.7178  -10.9936   14.2866 N   0  0  0  0  0  0  0  0  0  0  0  0
   -7.9572   -9.7324   14.2685 C   0  0  0  0  0  0  0  0  0  0  0  0
   -7.0766   -9.6226   13.0030 C   0  0  0  0  0  0  0  0  0  0  0  0
   -7.8826   -9.6990   11.8003 N   0  0  0  0  0  0  0  0  0  0  0  0
   -8.8034  -10.8340   11.7467 C   0  0  0  0  0  0  0  0  0  0  0  0
   -7.6308  -17.1705   21.6176 C   0  0  0  0  0  0  0  0  0  0  0  0
   -6.9978  -18.4998   21.9999 C   0  0  0  0  0  0  0  0  0  0  0  0
   -6.2403  -19.1432   21.0977 C   0  0  0  0  0  0  0  0  0  0  0  0
   -5.5803  -20.3267   21.0893 N   0  0  0  0  0  0  0  0  0  0  0  0
   -3.4113  -21.7915   20.0233 H   0  0  0  0  0  0  0  0  0  0  0  0
   -3.9872  -21.5633   18.3624 H   0  0  0  0  0  0  0  0  0  0  0  0
   -4.9273  -22.5533   19.4924 H   0  0  0  0  0  0  0  0  0  0  0  0
   -6.9701  -17.3405   18.5727 H   0  0  0  0  0  0  0  0  0  0  0  0
   -7.6851  -14.7167   17.6624 H   0  0  0  0  0  0  0  0  0  0  0  0
   -7.8787  -13.1427   16.6082 H   0  0  0  0  0  0  0  0  0  0  0  0
   -9.3442  -12.3043   17.7321 H   0  0  0  0  0  0  0  0  0  0  0  0
   -7.3390   -9.6136   15.1604 H   0  0  0  0  0  0  0  0  0  0  0  0
   -8.7108   -8.9384   14.2842 H   0  0  0  0  0  0  0  0  0  0  0  0
   -6.3148  -10.4093   12.9757 H   0  0  0  0  0  0  0  0  0  0  0  0
   -6.5436   -8.6661   13.0222 H   0  0  0  0  0  0  0  0  0  0  0  0
   -7.3315   -9.6421   10.9480 H   0  0  0  0  0  0  0  0  0  0  0  0
   -9.6974  -10.5389   11.1873 H   0  0  0  0  0  0  0  0  0  0  0  0
   -8.3228  -11.6400   11.1786 H   0  0  0  0  0  0  0  0  0  0  0  0
   -7.8121  -16.8251   22.5892 H   0  0  0  0  0  0  0  0  0  0  0  0
   -7.0311  -18.8911   22.9964 H   0  0  0  0  0  0  0  0  0  0  0  0
   -5.5374  -21.0032   21.8371 H   0  0  0  0  0  0  0  0  0  0  0  0
  1  2  1  0
  2  3  2  0
  3  4  1  0
  4  5  2  0
  5  6  1  0
  6  7  1  0
  7  8  2  0
  7  9  1  0
  9 10  1  0
 10 11  1  0
 11 12  2  0
 12 13  1  0
 13 14  2  0
 14 15  1  0
 15 16  1  0
 16 17  1  0
 17 18  1  0
 18 19  1  0
  6 20  2  0
 20 21  1  0
 21 22  2  0
 22 23  1  0
 23  2  1  0
 22  4  1  0
 15 11  1  0
 19 14  1  0
  1 24  1  0
  1 25  1  0
  1 26  1  0
  5 27  1  0
  9 28  1  0
 10 29  1  0
 10 30  1  0
 16 31  1  0
 16 32  1  0
 17 33  1  0
 17 34  1  0
 18 35  1  0
 19 36  1  0
 19 37  1  0
 20 38  1  0
 21 39  1  0
 23 40  1  0
M  END
>  <Energy>  (1053) 
455.0012517495997

>  <compound_id>  (1053) 
6302

>  <target_id>  (1053) 
1

>  <reference_id>  (1053) 
94

>  <inspiration_ids>  (1053) 
[94, 65]

>  <energy_score>  (1053) 
417.11399009766996

>  <distance_score>  (1053) 
13.05613494175909

>  <path>  (1053) 
/opt/xchem-fragalysis-2/maxwin/BulkDock/SCRATCH/511018/C6302-P94/C6302-P94.minimised.mol

>  <scratch_subdir>  (1053) 
/opt/xchem-fragalysis-2/maxwin/BulkDock/SCRATCH/511018/C6302-P94

>  <fragmenstein_runtime>  (1053) 
27.015799045562744

>  <fragmenstein_outcome>  (1053) 
too moved

>  <fragmenstein_mode>  (1053) 
expansion

>  <fragmenstein_error>  (1053) 


$$$$
C6302-P65
     RDKit          3D

 40 43  0  0  0  0  0  0  0  0999 V2000
   -6.9596  -23.3456   23.2726 C   0  0  0  0  0  0  0  0  0  0  0  0
   -6.1169  -22.1847   22.9794 C   0  0  0  0  0  0  0  0  0  0  0  0
   -6.5344  -20.9407   22.8927 N   0  0  0  0  0  0  0  0  0  0  0  0
   -6.0935  -20.5812   21.6570 C   0  0  0  0  0  0  0  0  0  0  0  0
   -6.6136  -19.6340   20.7629 C   0  0  0  0  0  0  0  0  0  0  0  0
   -6.2620  -19.7707   19.4099 C   0  0  0  0  0  0  0  0  0  0  0  0
   -7.1946  -19.2819   18.3187 C   0  0  0  0  0  0  0  0  0  0  0  0
   -7.9034  -20.1363   17.8216 O   0  0  0  0  0  0  0  0  0  0  0  0
   -7.0929  -17.8046   18.0376 N   0  0  0  0  0  0  0  0  0  0  0  0
   -7.9437  -16.6964   16.6985 C   0  0  0  0  0  0  0  0  0  0  0  0
   -7.7171  -15.7986   14.9308 C   0  0  0  0  0  0  0  0  0  0  0  0
   -8.3573  -14.6322   14.6763 N   0  0  0  0  0  0  0  0  0  0  0  0
   -8.7038  -14.3326   13.4124 N   0  0  0  0  0  0  0  0  0  0  0  0
   -8.0936  -15.1936   12.6723 C   0  0  0  0  0  0  0  0  0  0  0  0
   -7.4032  -16.1233   13.4839 N   0  0  0  0  0  0  0  0  0  0  0  0
   -6.1598  -16.5552   12.8198 C   0  0  0  0  0  0  0  0  0  0  0  0
   -5.5224  -15.5127   11.8114 C   0  0  0  0  0  0  0  0  0  0  0  0
   -6.3992  -14.5674   11.0977 N   0  0  0  0  0  0  0  0  0  0  0  0
   -7.7950  -14.9944   11.2255 C   0  0  0  0  0  0  0  0  0  0  0  0
   -5.2391  -20.6620   19.0385 C   0  0  0  0  0  0  0  0  0  0  0  0
   -4.5799  -21.4831   19.9596 C   0  0  0  0  0  0  0  0  0  0  0  0
   -5.1010  -21.4626   21.2402 C   0  0  0  0  0  0  0  0  0  0  0  0
   -4.9422  -22.3286   22.2968 N   0  0  0  0  0  0  0  0  0  0  0  0
   -7.9380  -23.2076   22.8090 H   0  0  0  0  0  0  0  0  0  0  0  0
   -7.0758  -23.4187   24.3463 H   0  0  0  0  0  0  0  0  0  0  0  0
   -6.5382  -24.2605   22.8533 H   0  0  0  0  0  0  0  0  0  0  0  0
   -7.4104  -18.9901   21.0994 H   0  0  0  0  0  0  0  0  0  0  0  0
   -6.3357  -17.4174   18.5829 H   0  0  0  0  0  0  0  0  0  0  0  0
   -7.0541  -16.0600   16.6881 H   0  0  0  0  0  0  0  0  0  0  0  0
   -8.3694  -17.4969   16.1878 H   0  0  0  0  0  0  0  0  0  0  0  0
   -6.4285  -17.4581   12.2621 H   0  0  0  0  0  0  0  0  0  0  0  0
   -5.4083  -16.8107   13.5568 H   0  0  0  0  0  0  0  0  0  0  0  0
   -4.9661  -16.0889   11.0616 H   0  0  0  0  0  0  0  0  0  0  0  0
   -4.7606  -14.9252   12.3330 H   0  0  0  0  0  0  0  0  0  0  0  0
   -6.3333  -13.6531   11.5544 H   0  0  0  0  0  0  0  0  0  0  0  0
   -8.4509  -14.2269   10.8012 H   0  0  0  0  0  0  0  0  0  0  0  0
   -7.9710  -15.9181   10.6624 H   0  0  0  0  0  0  0  0  0  0  0  0
   -4.9857  -20.7870   17.9883 H   0  0  0  0  0  0  0  0  0  0  0  0
   -3.8384  -22.2064   19.6404 H   0  0  0  0  0  0  0  0  0  0  0  0
   -4.4248  -23.1904   22.2252 H   0  0  0  0  0  0  0  0  0  0  0  0
  1  2  1  0
  2  3  2  0
  3  4  1  0
  4  5  2  0
  5  6  1  0
  6  7  1  0
  7  8  2  0
  7  9  1  0
  9 10  1  0
 10 11  1  0
 11 12  2  0
 12 13  1  0
 13 14  2  0
 14 15  1  0
 15 16  1  0
 16 17  1  0
 17 18  1  0
 18 19  1  0
  6 20  2  0
 20 21  1  0
 21 22  2  0
 22 23  1  0
 23  2  1  0
 22  4  1  0
 15 11  1  0
 19 14  1  0
  1 24  1  0
  1 25  1  0
  1 26  1  0
  5 27  1  0
  9 28  1  0
 10 29  1  0
 10 30  1  0
 16 31  1  0
 16 32  1  0
 17 33  1  0
 17 34  1  0
 18 35  1  0
 19 36  1  0
 19 37  1  0
 20 38  1  0
 21 39  1  0
 23 40  1  0
M  END
>  <Energy>  (1054) 
278.28231330144547

>  <compound_id>  (1054) 
6302

>  <target_id>  (1054) 
1

>  <reference_id>  (1054) 
65

>  <inspiration_ids>  (1054) 
[94, 65]

>  <energy_score>  (1054) 
240.39505164953505

>  <distance_score>  (1054) 
14.204522484591934

>  <path>  (1054) 
/opt/xchem-fragalysis-2/maxwin/BulkDock/SCRATCH/511018/C6302-P65/C6302-P65.minimised.mol

>  <scratch_subdir>  (1054) 
/opt/xchem-fragalysis-2/maxwin/BulkDock/SCRATCH/511018/C6302-P65

>  <fragmenstein_runtime>  (1054) 
32.44883370399475

>  <fragmenstein_outcome>  (1054) 
too moved

>  <fragmenstein_mode>  (1054) 
expansion

>  <fragmenstein_error>  (1054) 


$$$$
C6307-P30
     RDKit          3D

 41 42  0  0  0  0  0  0  0  0999 V2000
    2.9272  -11.7559    9.4420 O   0  0  0  0  0  0  0  0  0  0  0  0
    2.2591  -11.3470   10.3560 C   0  0  0  0  0  0  0  0  0  0  0  0
    3.0783  -10.2660   11.4943 C   0  0  0  0  0  0  0  0  0  0  0  0
    3.8963  -10.0295   13.3174 C   0  0  0  0  0  0  0  0  0  0  0  0
    5.0668   -9.4367   13.8493 C   0  0  0  0  0  0  0  0  0  0  0  0
    5.8939  -10.3891   13.8878 O   0  0  0  0  0  0  0  0  0  0  0  0
    5.5492   -7.7565   13.8901 C   0  0  0  0  0  0  0  0  0  0  0  0
    6.8973   -8.0726   13.9545 C   0  0  0  0  0  0  0  0  0  0  0  0
    7.9830   -9.2348   15.2103 C   0  0  0  0  0  0  0  0  0  0  0  0
    7.5534   -7.3815   14.7709 C   0  0  0  0  0  0  0  0  0  0  0  0
    6.4408   -6.4974   15.6046 S   0  0  0  0  0  0  0  0  0  0  0  0
    0.8671  -11.6126   10.7086 N   0  0  0  0  0  0  0  0  0  0  0  0
   -0.1111  -12.5237   10.1233 C   0  0  0  0  0  0  0  0  0  0  0  0
   -0.8350  -13.3572   11.1911 C   0  0  0  0  0  0  0  0  0  0  0  0
   -2.0793  -14.0818   10.6454 C   0  0  0  0  0  0  0  0  0  0  0  0
   -2.2099  -14.2907    9.4681 O   0  0  0  0  0  0  0  0  0  0  0  0
   -2.9803  -14.3206   11.7429 N   0  0  0  0  0  0  0  0  0  0  0  0
   -4.4065  -14.8009   11.7569 C   0  0  0  0  0  0  0  0  0  0  0  0
   -4.6419  -16.1513   11.1105 C   0  0  0  0  0  0  0  0  0  0  0  0
   -3.4043  -16.8387   11.5531 C   0  0  0  0  0  0  0  0  0  0  0  0
   -2.7456  -15.7041   12.3282 C   0  0  0  0  0  0  0  0  0  0  0  0
    2.2284  -10.6331   12.0208 H   0  0  0  0  0  0  0  0  0  0  0  0
    3.9320  -10.6967   10.9746 H   0  0  0  0  0  0  0  0  0  0  0  0
    3.2326  -10.0744   14.1547 H   0  0  0  0  0  0  0  0  0  0  0  0
    4.2702  -10.9274   13.7929 H   0  0  0  0  0  0  0  0  0  0  0  0
    7.3081   -7.8579   12.8835 H   0  0  0  0  0  0  0  0  0  0  0  0
    9.0254   -9.6705   15.1766 H   0  0  0  0  0  0  0  0  0  0  0  0
    8.4456   -6.7510   14.7058 H   0  0  0  0  0  0  0  0  0  0  0  0
    0.6585  -11.1647   11.5875 H   0  0  0  0  0  0  0  0  0  0  0  0
    0.3997  -13.1669    9.3995 H   0  0  0  0  0  0  0  0  0  0  0  0
   -0.8257  -11.9002    9.5759 H   0  0  0  0  0  0  0  0  0  0  0  0
   -0.1481  -14.1039   11.6050 H   0  0  0  0  0  0  0  0  0  0  0  0
   -1.1435  -12.6998   12.0140 H   0  0  0  0  0  0  0  0  0  0  0  0
   -4.9650  -14.0511   11.1810 H   0  0  0  0  0  0  0  0  0  0  0  0
   -4.8159  -14.7342   12.7784 H   0  0  0  0  0  0  0  0  0  0  0  0
   -5.5622  -16.6252   11.4622 H   0  0  0  0  0  0  0  0  0  0  0  0
   -4.6813  -16.0732   10.0189 H   0  0  0  0  0  0  0  0  0  0  0  0
   -3.5861  -17.7137   12.1834 H   0  0  0  0  0  0  0  0  0  0  0  0
   -2.7949  -17.1453   10.6965 H   0  0  0  0  0  0  0  0  0  0  0  0
   -1.6613  -15.8805   12.3412 H   0  0  0  0  0  0  0  0  0  0  0  0
   -3.0350  -15.7020   13.3928 H   0  0  0  0  0  0  0  0  0  0  0  0
  1  2  2  0
  2  3  1  0
  3  4  1  0
  4  5  1  0
  5  6  2  0
  5  7  1  0
  7  8  2  0
  8  9  1  0
  9 10  2  0
 10 11  1  0
  2 12  1  0
 12 13  1  0
 13 14  1  0
 14 15  1  0
 15 16  2  0
 15 17  1  0
 17 18  1  0
 18 19  1  0
 19 20  1  0
 20 21  1  0
 11  7  1  0
 21 17  1  0
  3 22  1  0
  3 23  1  0
  4 24  1  0
  4 25  1  0
  8 26  1  0
  9 27  1  0
 10 28  1  0
 12 29  1  0
 13 30  1  0
 13 31  1  0
 14 32  1  0
 14 33  1  0
 18 34  1  0
 18 35  1  0
 19 36  1  0
 19 37  1  0
 20 38  1  0
 20 39  1  0
 21 40  1  0
 21 41  1  0
M  END
>  <Energy>  (1055) 
818.246032522625

>  <compound_id>  (1055) 
6307

>  <target_id>  (1055) 
1

>  <reference_id>  (1055) 
30

>  <inspiration_ids>  (1055) 
[30, 76]

>  <energy_score>  (1055) 
802.553265329926

>  <distance_score>  (1055) 
14.070711568092486

>  <path>  (1055) 
/opt/xchem-fragalysis-2/maxwin/BulkDock/SCRATCH/511018/C6307-P30/C6307-P30.minimised.mol

>  <scratch_subdir>  (1055) 
/opt/xchem-fragalysis-2/maxwin/BulkDock/SCRATCH/511018/C6307-P30

>  <fragmenstein_runtime>  (1055) 
10.7117178440094

>  <fragmenstein_outcome>  (1055) 
too moved

>  <fragmenstein_mode>  (1055) 
expansion

>  <fragmenstein_error>  (1055) 


$$$$
C6307-P76
     RDKit          3D

 41 42  0  0  0  0  0  0  0  0999 V2000
    3.6649  -10.5118   12.8498 O   0  0  0  0  0  0  0  0  0  0  0  0
    4.0550  -10.5838   13.9380 C   0  0  0  0  0  0  0  0  0  0  0  0
    5.0385   -9.6299   14.1300 C   0  0  0  0  0  0  0  0  0  0  0  0
    4.9691   -7.8563   13.5084 C   0  0  0  0  0  0  0  0  0  0  0  0
    4.0290   -6.8299   12.1830 C   0  0  0  0  0  0  0  0  0  0  0  0
    3.2956   -7.5814   11.5351 O   0  0  0  0  0  0  0  0  0  0  0  0
    3.6512   -5.2132   12.1417 C   0  0  0  0  0  0  0  0  0  0  0  0
    3.9438   -4.1799   11.2423 C   0  0  0  0  0  0  0  0  0  0  0  0
    3.6089   -2.8586   11.6742 C   0  0  0  0  0  0  0  0  0  0  0  0
    2.8920   -2.8683   12.8378 C   0  0  0  0  0  0  0  0  0  0  0  0
    2.5585   -4.4535   13.3545 S   0  0  0  0  0  0  0  0  0  0  0  0
    3.5299  -11.4839   15.0842 N   0  0  0  0  0  0  0  0  0  0  0  0
    1.8815  -12.7438   15.1112 C   0  0  0  0  0  0  0  0  0  0  0  0
    0.5838  -12.9706   13.5541 C   0  0  0  0  0  0  0  0  0  0  0  0
   -0.0131  -14.3173   12.8481 C   0  0  0  0  0  0  0  0  0  0  0  0
    0.1811  -14.4708   11.6684 O   0  0  0  0  0  0  0  0  0  0  0  0
   -0.6310  -15.1825   13.8089 N   0  0  0  0  0  0  0  0  0  0  0  0
   -1.1313  -16.5936   13.6817 C   0  0  0  0  0  0  0  0  0  0  0  0
   -2.2077  -16.8243   12.6410 C   0  0  0  0  0  0  0  0  0  0  0  0
   -2.9766  -15.5729   12.8265 C   0  0  0  0  0  0  0  0  0  0  0  0
   -2.1174  -14.9027   13.8925 C   0  0  0  0  0  0  0  0  0  0  0  0
    5.9409   -9.0792   14.1152 H   0  0  0  0  0  0  0  0  0  0  0  0
    5.7485  -10.4882   13.9108 H   0  0  0  0  0  0  0  0  0  0  0  0
    5.9921   -7.6682   13.0270 H   0  0  0  0  0  0  0  0  0  0  0  0
    5.6738   -7.3696   14.2209 H   0  0  0  0  0  0  0  0  0  0  0  0
    4.4564   -4.2997   10.3051 H   0  0  0  0  0  0  0  0  0  0  0  0
    3.8537   -1.9561   11.1269 H   0  0  0  0  0  0  0  0  0  0  0  0
    2.4842   -2.0212   13.3720 H   0  0  0  0  0  0  0  0  0  0  0  0
    4.0222  -11.2591   15.9353 H   0  0  0  0  0  0  0  0  0  0  0  0
    1.1871  -12.0202   14.7018 H   0  0  0  0  0  0  0  0  0  0  0  0
    1.5728  -13.1172   16.0601 H   0  0  0  0  0  0  0  0  0  0  0  0
   -0.4090  -12.5312   13.7609 H   0  0  0  0  0  0  0  0  0  0  0  0
    0.6856  -12.1998   12.7577 H   0  0  0  0  0  0  0  0  0  0  0  0
   -1.4097  -16.9796   14.6764 H   0  0  0  0  0  0  0  0  0  0  0  0
   -0.2514  -17.1821   13.3894 H   0  0  0  0  0  0  0  0  0  0  0  0
   -1.7840  -16.8821   11.6329 H   0  0  0  0  0  0  0  0  0  0  0  0
   -2.7846  -17.7331   12.8323 H   0  0  0  0  0  0  0  0  0  0  0  0
   -4.0029  -15.7308   13.1693 H   0  0  0  0  0  0  0  0  0  0  0  0
   -3.0027  -14.9843   11.9033 H   0  0  0  0  0  0  0  0  0  0  0  0
   -2.4683  -15.1334   14.9125 H   0  0  0  0  0  0  0  0  0  0  0  0
   -2.2633  -13.8221   13.7870 H   0  0  0  0  0  0  0  0  0  0  0  0
  1  2  2  0
  2  3  1  0
  3  4  1  0
  4  5  1  0
  5  6  2  0
  5  7  1  0
  7  8  2  0
  8  9  1  0
  9 10  2  0
 10 11  1  0
  2 12  1  0
 12 13  1  0
 13 14  1  0
 14 15  1  0
 15 16  2  0
 15 17  1  0
 17 18  1  0
 18 19  1  0
 19 20  1  0
 20 21  1  0
 11  7  1  0
 21 17  1  0
  3 22  1  0
  3 23  1  0
  4 24  1  0
  4 25  1  0
  8 26  1  0
  9 27  1  0
 10 28  1  0
 12 29  1  0
 13 30  1  0
 13 31  1  0
 14 32  1  0
 14 33  1  0
 18 34  1  0
 18 35  1  0
 19 36  1  0
 19 37  1  0
 20 38  1  0
 20 39  1  0
 21 40  1  0
 21 41  1  0
M  END
>  <Energy>  (1056) 
574.92739306920362

>  <compound_id>  (1056) 
6307

>  <target_id>  (1056) 
1

>  <reference_id>  (1056) 
76

>  <inspiration_ids>  (1056) 
[30, 76]

>  <energy_score>  (1056) 
559.2346258765081

>  <distance_score>  (1056) 
14.191819665171732

>  <path>  (1056) 
/opt/xchem-fragalysis-2/maxwin/BulkDock/SCRATCH/511018/C6307-P76/C6307-P76.minimised.mol

>  <scratch_subdir>  (1056) 
/opt/xchem-fragalysis-2/maxwin/BulkDock/SCRATCH/511018/C6307-P76

>  <fragmenstein_runtime>  (1056) 
11.999087572097778

>  <fragmenstein_outcome>  (1056) 
too moved

>  <fragmenstein_mode>  (1056) 
expansion

>  <fragmenstein_error>  (1056) 


$$$$
C5968-P30
     RDKit          3D

 54 57  0  0  0  0  0  0  0  0999 V2000
    6.0586  -11.1216    9.2058 O   0  0  0  0  0  0  0  0  0  0  0  0
    5.3256  -10.2661    9.6736 C   0  0  0  0  0  0  0  0  0  0  0  0
    6.3020   -8.4704    9.7285 C   0  0  0  0  0  0  0  0  0  0  0  0
    7.5762   -7.2629   10.8074 C   0  0  0  0  0  0  0  0  0  0  0  0
    7.9934   -6.5942   12.6629 C   0  0  0  0  0  0  0  0  0  0  0  0
    7.1275   -7.4933   13.0740 O   0  0  0  0  0  0  0  0  0  0  0  0
    8.6438   -5.1060   14.0491 C   0  0  0  0  0  0  0  0  0  0  0  0
   10.3145   -4.4672   14.4066 C   0  0  0  0  0  0  0  0  0  0  0  0
   10.7574   -3.1802   14.8307 C   0  0  0  0  0  0  0  0  0  0  0  0
    9.7487   -2.3018   14.8734 C   0  0  0  0  0  0  0  0  0  0  0  0
    8.1924   -2.9186   14.6677 S   0  0  0  0  0  0  0  0  0  0  0  0
    3.6804  -10.5702   10.3234 N   0  0  0  0  0  0  0  0  0  0  0  0
    2.6203  -12.1403   10.3574 C   0  0  0  0  0  0  0  0  0  0  0  0
    1.3896  -13.6962   11.1733 C   0  0  0  0  0  0  0  0  0  0  0  0
    1.7055  -15.6086   10.3541 C   0  0  0  0  0  0  0  0  0  0  0  0
    2.8114  -16.1648   10.3517 O   0  0  0  0  0  0  0  0  0  0  0  0
    0.7370  -16.4249    9.5908 N   0  0  0  0  0  0  0  0  0  0  0  0
   -0.1303  -17.4243    9.8715 C   0  0  0  0  0  0  0  0  0  0  0  0
   -1.2515  -18.1997    9.0246 C   0  0  0  0  0  0  0  0  0  0  0  0
   -1.7836  -18.1649   10.3775 C   0  0  0  0  0  0  0  0  0  0  0  0
   -0.1183  -17.6257   10.8020 C   0  0  0  0  0  0  0  0  0  0  0  0
    0.4423  -19.0526   11.4528 C   0  0  0  0  0  0  0  0  0  0  0  0
   -0.2163  -19.5202   12.5152 N   0  0  0  0  0  0  0  0  0  0  0  0
   -0.5367  -20.8201   12.2003 C   0  0  0  0  0  0  0  0  0  0  0  0
   -1.4727  -21.6850   12.7941 C   0  0  0  0  0  0  0  0  0  0  0  0
   -1.7180  -22.9221   12.1909 C   0  0  0  0  0  0  0  0  0  0  0  0
   -1.0193  -23.2970   11.0420 C   0  0  0  0  0  0  0  0  0  0  0  0
   -0.0535  -22.4586   10.4548 C   0  0  0  0  0  0  0  0  0  0  0  0
    0.1493  -21.2116   11.0532 C   0  0  0  0  0  0  0  0  0  0  0  0
    0.9187  -20.1107   10.7021 N   0  0  0  0  0  0  0  0  0  0  0  0
    6.9415   -8.6028    8.8391 H   0  0  0  0  0  0  0  0  0  0  0  0
    5.5179   -7.7634    9.4010 H   0  0  0  0  0  0  0  0  0  0  0  0
    8.4970   -7.8233   10.5892 H   0  0  0  0  0  0  0  0  0  0  0  0
    7.5749   -6.3763   10.1622 H   0  0  0  0  0  0  0  0  0  0  0  0
   11.1455   -5.1717   14.3575 H   0  0  0  0  0  0  0  0  0  0  0  0
   11.7944   -2.9278   15.0131 H   0  0  0  0  0  0  0  0  0  0  0  0
    9.8354   -1.2429   15.0728 H   0  0  0  0  0  0  0  0  0  0  0  0
    3.2498   -9.6827   10.5732 H   0  0  0  0  0  0  0  0  0  0  0  0
    2.7521  -12.4054    9.2970 H   0  0  0  0  0  0  0  0  0  0  0  0
    1.9038  -11.4151   10.7925 H   0  0  0  0  0  0  0  0  0  0  0  0
    0.3395  -13.3577   11.2187 H   0  0  0  0  0  0  0  0  0  0  0  0
    1.4759  -13.8309   12.2518 H   0  0  0  0  0  0  0  0  0  0  0  0
   -0.9192  -16.5037    9.8079 H   0  0  0  0  0  0  0  0  0  0  0  0
    0.5058  -17.8938    9.0104 H   0  0  0  0  0  0  0  0  0  0  0  0
   -0.9810  -19.2064    8.6910 H   0  0  0  0  0  0  0  0  0  0  0  0
   -1.7775  -17.6160    8.2662 H   0  0  0  0  0  0  0  0  0  0  0  0
   -2.0936  -19.1196   10.7995 H   0  0  0  0  0  0  0  0  0  0  0  0
   -2.5653  -17.3976   10.4413 H   0  0  0  0  0  0  0  0  0  0  0  0
   -0.0159  -16.9443   11.6695 H   0  0  0  0  0  0  0  0  0  0  0  0
   -2.0292  -21.3805   13.6743 H   0  0  0  0  0  0  0  0  0  0  0  0
   -2.4594  -23.5901   12.6235 H   0  0  0  0  0  0  0  0  0  0  0  0
   -1.2227  -24.2676   10.5926 H   0  0  0  0  0  0  0  0  0  0  0  0
    0.4773  -22.7597    9.5582 H   0  0  0  0  0  0  0  0  0  0  0  0
    1.4383  -20.0255    9.8398 H   0  0  0  0  0  0  0  0  0  0  0  0
  1  2  2  0
  2  3  1  0
  3  4  1  0
  4  5  1  0
  5  6  2  0
  5  7  1  0
  7  8  2  0
  8  9  1  0
  9 10  2  0
 10 11  1  0
  2 12  1  0
 12 13  1  0
 13 14  1  0
 14 15  1  0
 15 16  2  0
 15 17  1  0
 17 18  1  0
 18 19  1  0
 19 20  1  0
 20 21  1  0
 21 22  1  0
 22 23  2  0
 23 24  1  0
 24 25  2  0
 25 26  1  0
 26 27  2  0
 27 28  1  0
 28 29  2  0
 29 30  1  0
 11  7  1  0
 21 17  1  0
 30 22  1  0
 29 24  1  0
  3 31  1  0
  3 32  1  0
  4 33  1  0
  4 34  1  0
  8 35  1  0
  9 36  1  0
 10 37  1  0
 12 38  1  0
 13 39  1  0
 13 40  1  0
 14 41  1  0
 14 42  1  0
 18 43  1  0
 18 44  1  0
 19 45  1  0
 19 46  1  0
 20 47  1  0
 20 48  1  0
 21 49  1  0
 25 50  1  0
 26 51  1  0
 27 52  1  0
 28 53  1  0
 30 54  1  0
M  END
>  <Energy>  (1057) 
1641.1150503513891

>  <compound_id>  (1057) 
5968

>  <target_id>  (1057) 
1

>  <reference_id>  (1057) 
30

>  <inspiration_ids>  (1057) 
[30, 76]

>  <energy_score>  (1057) 
1604.2038930404299

>  <distance_score>  (1057) 
12.638025168021676

>  <path>  (1057) 
/opt/xchem-fragalysis-2/maxwin/BulkDock/SCRATCH/511018/C5968-P30/C5968-P30.minimised.mol

>  <scratch_subdir>  (1057) 
/opt/xchem-fragalysis-2/maxwin/BulkDock/SCRATCH/511018/C5968-P30

>  <fragmenstein_runtime>  (1057) 
27.088261127471924

>  <fragmenstein_outcome>  (1057) 
too moved

>  <fragmenstein_mode>  (1057) 
expansion

>  <fragmenstein_error>  (1057) 


$$$$
C5968-P76
     RDKit          3D

 54 57  0  0  0  0  0  0  0  0999 V2000
    4.4234   -6.9291   16.4694 O   0  0  0  0  0  0  0  0  0  0  0  0
    4.7404   -7.4596   17.5566 C   0  0  0  0  0  0  0  0  0  0  0  0
    5.8243   -6.3643   18.3875 C   0  0  0  0  0  0  0  0  0  0  0  0
    6.8595   -5.7609   16.6718 C   0  0  0  0  0  0  0  0  0  0  0  0
    8.1675   -4.3382   15.7865 C   0  0  0  0  0  0  0  0  0  0  0  0
    7.6132   -3.2098   15.3797 O   0  0  0  0  0  0  0  0  0  0  0  0
   10.0046   -3.9313   15.4082 C   0  0  0  0  0  0  0  0  0  0  0  0
   11.2438   -4.3131   16.0303 C   0  0  0  0  0  0  0  0  0  0  0  0
   12.3784   -3.4675   15.8365 C   0  0  0  0  0  0  0  0  0  0  0  0
   12.0509   -2.3864   15.0808 C   0  0  0  0  0  0  0  0  0  0  0  0
   10.3780   -2.2794   14.9207 S   0  0  0  0  0  0  0  0  0  0  0  0
    4.0740   -9.4426   17.8414 N   0  0  0  0  0  0  0  0  0  0  0  0
    3.0332  -10.9431   16.5417 C   0  0  0  0  0  0  0  0  0  0  0  0
    1.6530  -12.6177   15.5512 C   0  0  0  0  0  0  0  0  0  0  0  0
    0.0516  -13.9621   14.4672 C   0  0  0  0  0  0  0  0  0  0  0  0
   -0.0527  -14.1927   13.2644 O   0  0  0  0  0  0  0  0  0  0  0  0
   -1.0111  -14.7665   16.1045 N   0  0  0  0  0  0  0  0  0  0  0  0
   -2.0650  -14.0132   16.3439 C   0  0  0  0  0  0  0  0  0  0  0  0
   -1.9740  -13.1602   17.8956 C   0  0  0  0  0  0  0  0  0  0  0  0
   -2.5302  -14.3113   18.5547 C   0  0  0  0  0  0  0  0  0  0  0  0
   -2.6618  -14.3113   17.0567 C   0  0  0  0  0  0  0  0  0  0  0  0
   -3.8148  -15.7077   16.8101 C   0  0  0  0  0  0  0  0  0  0  0  0
   -5.0946  -15.5401   17.1677 N   0  0  0  0  0  0  0  0  0  0  0  0
   -5.7742  -15.4066   15.9644 C   0  0  0  0  0  0  0  0  0  0  0  0
   -7.0858  -14.9975   15.6793 C   0  0  0  0  0  0  0  0  0  0  0  0
   -7.5000  -14.9596   14.3369 C   0  0  0  0  0  0  0  0  0  0  0  0
   -6.6366  -15.3235   13.3011 C   0  0  0  0  0  0  0  0  0  0  0  0
   -5.3267  -15.7319   13.5631 C   0  0  0  0  0  0  0  0  0  0  0  0
   -4.9481  -15.7783   14.9077 C   0  0  0  0  0  0  0  0  0  0  0  0
   -3.8274  -16.2927   15.5475 N   0  0  0  0  0  0  0  0  0  0  0  0
    6.4953   -6.8286   19.1041 H   0  0  0  0  0  0  0  0  0  0  0  0
    5.2759   -5.4977   18.7451 H   0  0  0  0  0  0  0  0  0  0  0  0
    6.9761   -6.6095   16.0100 H   0  0  0  0  0  0  0  0  0  0  0  0
    5.9098   -5.5291   16.1283 H   0  0  0  0  0  0  0  0  0  0  0  0
   11.3677   -5.1889   16.6459 H   0  0  0  0  0  0  0  0  0  0  0  0
   13.3730   -3.6741   16.2110 H   0  0  0  0  0  0  0  0  0  0  0  0
   12.6923   -1.5878   14.7330 H   0  0  0  0  0  0  0  0  0  0  0  0
    4.4477   -9.7736   18.6717 H   0  0  0  0  0  0  0  0  0  0  0  0
    3.8205  -11.0694   15.7780 H   0  0  0  0  0  0  0  0  0  0  0  0
    3.3825  -11.6624   17.2881 H   0  0  0  0  0  0  0  0  0  0  0  0
    1.3973  -12.2615   14.4958 H   0  0  0  0  0  0  0  0  0  0  0  0
    1.4741  -13.4022   16.3549 H   0  0  0  0  0  0  0  0  0  0  0  0
   -2.7768  -14.5466   15.4247 H   0  0  0  0  0  0  0  0  0  0  0  0
   -1.6411  -13.2199   16.0423 H   0  0  0  0  0  0  0  0  0  0  0  0
   -0.9363  -12.8885   18.0219 H   0  0  0  0  0  0  0  0  0  0  0  0
   -2.5779  -12.2411   17.9810 H   0  0  0  0  0  0  0  0  0  0  0  0
   -3.4524  -14.1307   19.1090 H   0  0  0  0  0  0  0  0  0  0  0  0
   -1.9423  -15.1349   18.9415 H   0  0  0  0  0  0  0  0  0  0  0  0
   -3.7149  -13.7861   16.8457 H   0  0  0  0  0  0  0  0  0  0  0  0
   -7.7554  -14.7134   16.4823 H   0  0  0  0  0  0  0  0  0  0  0  0
   -8.5065  -14.6286   14.0952 H   0  0  0  0  0  0  0  0  0  0  0  0
   -6.9870  -15.2865   12.2716 H   0  0  0  0  0  0  0  0  0  0  0  0
   -4.6625  -16.0418   12.7643 H   0  0  0  0  0  0  0  0  0  0  0  0
   -2.9944  -16.5460   15.0461 H   0  0  0  0  0  0  0  0  0  0  0  0
  1  2  2  0
  2  3  1  0
  3  4  1  0
  4  5  1  0
  5  6  2  0
  5  7  1  0
  7  8  2  0
  8  9  1  0
  9 10  2  0
 10 11  1  0
  2 12  1  0
 12 13  1  0
 13 14  1  0
 14 15  1  0
 15 16  2  0
 15 17  1  0
 17 18  1  0
 18 19  1  0
 19 20  1  0
 20 21  1  0
 21 22  1  0
 22 23  2  0
 23 24  1  0
 24 25  2  0
 25 26  1  0
 26 27  2  0
 27 28  1  0
 28 29  2  0
 29 30  1  0
 11  7  1  0
 21 17  1  0
 30 22  1  0
 29 24  1  0
  3 31  1  0
  3 32  1  0
  4 33  1  0
  4 34  1  0
  8 35  1  0
  9 36  1  0
 10 37  1  0
 12 38  1  0
 13 39  1  0
 13 40  1  0
 14 41  1  0
 14 42  1  0
 18 43  1  0
 18 44  1  0
 19 45  1  0
 19 46  1  0
 20 47  1  0
 20 48  1  0
 21 49  1  0
 25 50  1  0
 26 51  1  0
 27 52  1  0
 28 53  1  0
 30 54  1  0
M  END
>  <Energy>  (1058) 
2342.1928435551158

>  <compound_id>  (1058) 
5968

>  <target_id>  (1058) 
1

>  <reference_id>  (1058) 
76

>  <inspiration_ids>  (1058) 
[30, 76]

>  <energy_score>  (1058) 
2305.2816862441196

>  <distance_score>  (1058) 
12.108165932391698

>  <path>  (1058) 
/opt/xchem-fragalysis-2/maxwin/BulkDock/SCRATCH/511018/C5968-P76/C5968-P76.minimised.mol

>  <scratch_subdir>  (1058) 
/opt/xchem-fragalysis-2/maxwin/BulkDock/SCRATCH/511018/C5968-P76

>  <fragmenstein_runtime>  (1058) 
18.48398447036743

>  <fragmenstein_outcome>  (1058) 
too moved

>  <fragmenstein_mode>  (1058) 
expansion

>  <fragmenstein_error>  (1058) 


$$$$
C6317-P30
     RDKit          3D

 46 47  0  0  0  0  0  0  0  0999 V2000
   -7.8872  -21.9497   13.2426 C   0  0  0  0  0  0  0  0  0  0  0  0
   -8.7627  -22.2723   14.5317 C   0  0  0  0  0  0  0  0  0  0  0  0
   -9.3932  -21.7076   15.7623 N   0  0  0  0  0  0  0  0  0  0  0  0
   -8.6134  -20.9714   17.3804 C   0  0  0  0  0  0  0  0  0  0  0  0
   -7.3936  -21.0629   17.4571 O   0  0  0  0  0  0  0  0  0  0  0  0
   -9.1879  -20.0033   18.7557 C   0  0  0  0  0  0  0  0  0  0  0  0
   -9.5699  -20.1527   20.2910 C   0  0  0  0  0  0  0  0  0  0  0  0
   -8.8207  -18.3296   18.5902 C   0  0  0  0  0  0  0  0  0  0  0  0
   -7.4078  -17.8961   18.7824 O   0  0  0  0  0  0  0  0  0  0  0  0
   -7.1524  -16.4694   18.6976 C   0  0  0  0  0  0  0  0  0  0  0  0
  -10.0308  -23.4618   15.3748 C   0  0  0  0  0  0  0  0  0  0  0  0
  -10.3177  -23.8729   13.6180 C   0  0  0  0  0  0  0  0  0  0  0  0
  -10.9738  -25.2327   13.6927 C   0  0  0  0  0  0  0  0  0  0  0  0
  -11.0619  -25.7955   15.0722 N   0  0  0  0  0  0  0  0  0  0  0  0
  -11.3954  -27.1753   15.0195 C   0  0  0  0  0  0  0  0  0  0  0  0
  -10.6902  -28.1474   14.9733 O   0  0  0  0  0  0  0  0  0  0  0  0
  -12.8526  -27.3340   14.9154 C   0  0  0  0  0  0  0  0  0  0  0  0
  -13.5255  -28.3821   14.3170 C   0  0  0  0  0  0  0  0  0  0  0  0
  -14.9381  -28.1975   14.3233 C   0  0  0  0  0  0  0  0  0  0  0  0
  -15.2987  -27.0196   14.9382 C   0  0  0  0  0  0  0  0  0  0  0  0
  -13.9504  -26.1687   15.5392 S   0  0  0  0  0  0  0  0  0  0  0  0
   -9.7187  -25.1044   15.2000 C   0  0  0  0  0  0  0  0  0  0  0  0
   -7.0630  -21.2740   13.3529 H   0  0  0  0  0  0  0  0  0  0  0  0
   -7.4865  -22.8424   12.7609 H   0  0  0  0  0  0  0  0  0  0  0  0
   -8.5192  -21.5451   12.4367 H   0  0  0  0  0  0  0  0  0  0  0  0
   -9.6483  -22.0466   13.9537 H   0  0  0  0  0  0  0  0  0  0  0  0
   -8.1524  -22.9580   15.0554 H   0  0  0  0  0  0  0  0  0  0  0  0
   -8.1595  -20.1958   19.1398 H   0  0  0  0  0  0  0  0  0  0  0  0
   -8.8480  -19.6322   20.9362 H   0  0  0  0  0  0  0  0  0  0  0  0
  -10.5414  -19.6819   20.4894 H   0  0  0  0  0  0  0  0  0  0  0  0
   -9.6094  -21.1877   20.6293 H   0  0  0  0  0  0  0  0  0  0  0  0
   -9.4173  -17.7912   19.3364 H   0  0  0  0  0  0  0  0  0  0  0  0
   -9.1464  -17.9835   17.6195 H   0  0  0  0  0  0  0  0  0  0  0  0
   -7.6879  -15.9657   19.5067 H   0  0  0  0  0  0  0  0  0  0  0  0
   -7.4920  -16.0889   17.7310 H   0  0  0  0  0  0  0  0  0  0  0  0
   -6.0793  -16.3033   18.8160 H   0  0  0  0  0  0  0  0  0  0  0  0
  -10.9389  -23.1498   14.9597 H   0  0  0  0  0  0  0  0  0  0  0  0
   -9.4060  -23.9558   13.0139 H   0  0  0  0  0  0  0  0  0  0  0  0
  -10.9899  -23.1658   13.0996 H   0  0  0  0  0  0  0  0  0  0  0  0
  -12.0070  -25.1389   13.3316 H   0  0  0  0  0  0  0  0  0  0  0  0
  -10.5129  -25.9552   12.9976 H   0  0  0  0  0  0  0  0  0  0  0  0
  -13.0182  -29.2329   13.8760 H   0  0  0  0  0  0  0  0  0  0  0  0
  -15.6517  -28.8903   13.8938 H   0  0  0  0  0  0  0  0  0  0  0  0
  -16.2977  -26.6304   15.0819 H   0  0  0  0  0  0  0  0  0  0  0  0
   -9.0414  -25.4510   14.4024 H   0  0  0  0  0  0  0  0  0  0  0  0
   -9.2686  -25.6846   16.0110 H   0  0  0  0  0  0  0  0  0  0  0  0
  1  2  1  0
  2  3  1  0
  3  4  1  0
  4  5  2  0
  4  6  1  0
  6  7  1  0
  6  8  1  0
  8  9  1  0
  9 10  1  0
  3 11  1  0
 11 12  1  0
 12 13  1  0
 13 14  1  0
 14 15  1  0
 15 16  2  0
 15 17  1  0
 17 18  2  0
 18 19  1  0
 19 20  2  0
 20 21  1  0
 14 22  1  0
 22 11  1  0
 21 17  1  0
  1 23  1  0
  1 24  1  0
  1 25  1  0
  2 26  1  0
  2 27  1  0
  6 28  1  0
  7 29  1  0
  7 30  1  0
  7 31  1  0
  8 32  1  0
  8 33  1  0
 10 34  1  0
 10 35  1  0
 10 36  1  0
 11 37  1  0
 12 38  1  0
 12 39  1  0
 13 40  1  0
 13 41  1  0
 18 42  1  0
 19 43  1  0
 20 44  1  0
 22 45  1  0
 22 46  1  0
M  END
>  <Energy>  (1059) 
659.60521552093394

>  <compound_id>  (1059) 
6317

>  <target_id>  (1059) 
1

>  <reference_id>  (1059) 
30

>  <inspiration_ids>  (1059) 
[30, 76]

>  <energy_score>  (1059) 
581.2153449075905

>  <distance_score>  (1059) 
15.315725912866737

>  <path>  (1059) 
/opt/xchem-fragalysis-2/maxwin/BulkDock/SCRATCH/511018/C6317-P30/C6317-P30.minimised.mol

>  <scratch_subdir>  (1059) 
/opt/xchem-fragalysis-2/maxwin/BulkDock/SCRATCH/511018/C6317-P30

>  <fragmenstein_runtime>  (1059) 
8.960952281951904

>  <fragmenstein_outcome>  (1059) 
too moved

>  <fragmenstein_mode>  (1059) 
expansion

>  <fragmenstein_error>  (1059) 


$$$$
C6317-P76
     RDKit          3D

 46 47  0  0  0  0  0  0  0  0999 V2000
  -10.0968  -21.5795   13.8363 C   0  0  0  0  0  0  0  0  0  0  0  0
  -10.3243  -20.2181   12.9170 C   0  0  0  0  0  0  0  0  0  0  0  0
   -9.4943  -18.8035   12.2174 N   0  0  0  0  0  0  0  0  0  0  0  0
   -8.4545  -17.4708   13.0100 C   0  0  0  0  0  0  0  0  0  0  0  0
   -8.2085  -17.5885   14.1448 O   0  0  0  0  0  0  0  0  0  0  0  0
   -7.8100  -15.8570   12.4351 C   0  0  0  0  0  0  0  0  0  0  0  0
   -8.7631  -14.6103   12.6271 C   0  0  0  0  0  0  0  0  0  0  0  0
   -6.4589  -15.4517   11.7757 C   0  0  0  0  0  0  0  0  0  0  0  0
   -6.0713  -14.0359   11.6900 O   0  0  0  0  0  0  0  0  0  0  0  0
   -5.3255  -13.5316   12.8031 C   0  0  0  0  0  0  0  0  0  0  0  0
   -8.5371  -20.2209   11.4712 C   0  0  0  0  0  0  0  0  0  0  0  0
   -9.1111  -20.6336   10.0850 C   0  0  0  0  0  0  0  0  0  0  0  0
   -9.4965  -22.1295   10.1069 C   0  0  0  0  0  0  0  0  0  0  0  0
   -9.6227  -22.7762   11.4457 N   0  0  0  0  0  0  0  0  0  0  0  0
   -9.6596  -24.1962   11.3076 C   0  0  0  0  0  0  0  0  0  0  0  0
   -8.7701  -25.0042   11.3155 O   0  0  0  0  0  0  0  0  0  0  0  0
  -11.0289  -24.6639   11.1647 C   0  0  0  0  0  0  0  0  0  0  0  0
  -11.6592  -25.1135   10.0231 C   0  0  0  0  0  0  0  0  0  0  0  0
  -13.0017  -25.5175   10.2798 C   0  0  0  0  0  0  0  0  0  0  0  0
  -13.3292  -25.3945   11.6125 C   0  0  0  0  0  0  0  0  0  0  0  0
  -12.0185  -24.8251   12.5467 S   0  0  0  0  0  0  0  0  0  0  0  0
   -8.4819  -21.8517   11.7542 C   0  0  0  0  0  0  0  0  0  0  0  0
  -10.0129  -21.3208   14.8791 H   0  0  0  0  0  0  0  0  0  0  0  0
  -10.8626  -22.2857   13.5300 H   0  0  0  0  0  0  0  0  0  0  0  0
   -9.2584  -22.2730   13.8198 H   0  0  0  0  0  0  0  0  0  0  0  0
  -10.5237  -20.8139   12.0946 H   0  0  0  0  0  0  0  0  0  0  0  0
  -11.1335  -19.7123   13.4001 H   0  0  0  0  0  0  0  0  0  0  0  0
   -7.3754  -15.7203   13.4528 H   0  0  0  0  0  0  0  0  0  0  0  0
   -8.9564  -14.1037   11.6756 H   0  0  0  0  0  0  0  0  0  0  0  0
   -8.3144  -13.8671   13.2966 H   0  0  0  0  0  0  0  0  0  0  0  0
   -9.7201  -14.9053   13.0686 H   0  0  0  0  0  0  0  0  0  0  0  0
   -5.6842  -15.9176   12.3700 H   0  0  0  0  0  0  0  0  0  0  0  0
   -6.4285  -15.8111   10.7492 H   0  0  0  0  0  0  0  0  0  0  0  0
   -4.4069  -14.1059   12.9140 H   0  0  0  0  0  0  0  0  0  0  0  0
   -5.1394  -12.4748   12.6192 H   0  0  0  0  0  0  0  0  0  0  0  0
   -5.9196  -13.6229   13.7168 H   0  0  0  0  0  0  0  0  0  0  0  0
   -7.5009  -19.8855   11.4640 H   0  0  0  0  0  0  0  0  0  0  0  0
   -9.8282  -19.9822    9.5794 H   0  0  0  0  0  0  0  0  0  0  0  0
   -8.4189  -20.5428    9.2997 H   0  0  0  0  0  0  0  0  0  0  0  0
  -10.4646  -22.2848    9.6074 H   0  0  0  0  0  0  0  0  0  0  0  0
   -8.9126  -22.7538    9.4327 H   0  0  0  0  0  0  0  0  0  0  0  0
  -11.1813  -25.1439    9.0514 H   0  0  0  0  0  0  0  0  0  0  0  0
  -13.6879  -25.8891    9.5284 H   0  0  0  0  0  0  0  0  0  0  0  0
  -14.2714  -25.6342   12.0862 H   0  0  0  0  0  0  0  0  0  0  0  0
   -7.7406  -22.4145   11.2409 H   0  0  0  0  0  0  0  0  0  0  0  0
   -7.9874  -22.0894   12.6994 H   0  0  0  0  0  0  0  0  0  0  0  0
  1  2  1  0
  2  3  1  0
  3  4  1  0
  4  5  2  0
  4  6  1  0
  6  7  1  0
  6  8  1  0
  8  9  1  0
  9 10  1  0
  3 11  1  0
 11 12  1  0
 12 13  1  0
 13 14  1  0
 14 15  1  0
 15 16  2  0
 15 17  1  0
 17 18  2  0
 18 19  1  0
 19 20  2  0
 20 21  1  0
 14 22  1  0
 22 11  1  0
 21 17  1  0
  1 23  1  0
  1 24  1  0
  1 25  1  0
  2 26  1  0
  2 27  1  0
  6 28  1  0
  7 29  1  0
  7 30  1  0
  7 31  1  0
  8 32  1  0
  8 33  1  0
 10 34  1  0
 10 35  1  0
 10 36  1  0
 11 37  1  0
 12 38  1  0
 12 39  1  0
 13 40  1  0
 13 41  1  0
 18 42  1  0
 19 43  1  0
 20 44  1  0
 22 45  1  0
 22 46  1  0
M  END
>  <Energy>  (1060) 
486.46364976669889

>  <compound_id>  (1060) 
6317

>  <target_id>  (1060) 
1

>  <reference_id>  (1060) 
76

>  <inspiration_ids>  (1060) 
[30, 76]

>  <energy_score>  (1060) 
408.0737791533618

>  <distance_score>  (1060) 
14.028578690313065

>  <path>  (1060) 
/opt/xchem-fragalysis-2/maxwin/BulkDock/SCRATCH/511018/C6317-P76/C6317-P76.minimised.mol

>  <scratch_subdir>  (1060) 
/opt/xchem-fragalysis-2/maxwin/BulkDock/SCRATCH/511018/C6317-P76

>  <fragmenstein_runtime>  (1060) 
14.075756072998047

>  <fragmenstein_outcome>  (1060) 
too moved

>  <fragmenstein_mode>  (1060) 
expansion

>  <fragmenstein_error>  (1060) 


$$$$
C6319-P30
     RDKit          3D

 49 50  0  0  0  0  0  0  0  0999 V2000
    7.6128   -8.8187    7.0826 C   0  0  0  0  0  0  0  0  0  0  0  0
    8.9574   -8.5076    7.5169 N   0  0  0  0  0  0  0  0  0  0  0  0
    9.0225   -7.5615    8.6336 C   0  0  0  0  0  0  0  0  0  0  0  0
    9.8730   -9.6781    7.5152 C   0  0  0  0  0  0  0  0  0  0  0  0
    9.4259  -11.2295    7.8578 C   0  0  0  0  0  0  0  0  0  0  0  0
    8.4454  -12.2542    7.2933 N   0  0  0  0  0  0  0  0  0  0  0  0
    6.9728  -12.3132    7.3410 C   0  0  0  0  0  0  0  0  0  0  0  0
    6.1734  -11.5276    7.7642 O   0  0  0  0  0  0  0  0  0  0  0  0
    6.3873  -13.7600    6.8154 C   0  0  0  0  0  0  0  0  0  0  0  0
    7.1110  -14.3433    6.0531 O   0  0  0  0  0  0  0  0  0  0  0  0
    5.0924  -14.1707    7.4290 N   0  0  0  0  0  0  0  0  0  0  0  0
    4.3345  -15.4877    7.3628 C   0  0  0  0  0  0  0  0  0  0  0  0
    2.8949  -15.6329    8.0608 C   0  0  0  0  0  0  0  0  0  0  0  0
    2.2834  -17.0813    8.2155 C   0  0  0  0  0  0  0  0  0  0  0  0
    1.1194  -17.4423    7.2688 C   0  0  0  0  0  0  0  0  0  0  0  0
    0.1641  -18.3408    8.0675 C   0  0  0  0  0  0  0  0  0  0  0  0
    0.8213  -18.5579    9.3487 N   0  0  0  0  0  0  0  0  0  0  0  0
    1.6467  -17.3717    9.5885 C   0  0  0  0  0  0  0  0  0  0  0  0
   11.2071   -9.2539    8.2445 C   0  0  0  0  0  0  0  0  0  0  0  0
   12.0678   -8.2263    7.8674 C   0  0  0  0  0  0  0  0  0  0  0  0
   13.0843   -7.9538    8.8289 C   0  0  0  0  0  0  0  0  0  0  0  0
   13.0272   -8.8298    9.8839 C   0  0  0  0  0  0  0  0  0  0  0  0
   11.7314   -9.9261    9.7373 S   0  0  0  0  0  0  0  0  0  0  0  0
    7.6201   -9.4326    6.1756 H   0  0  0  0  0  0  0  0  0  0  0  0
    7.0662   -7.9038    6.8276 H   0  0  0  0  0  0  0  0  0  0  0  0
    7.0547   -9.3367    7.8557 H   0  0  0  0  0  0  0  0  0  0  0  0
    8.1239   -6.9354    8.6822 H   0  0  0  0  0  0  0  0  0  0  0  0
    9.1334   -8.0701    9.5909 H   0  0  0  0  0  0  0  0  0  0  0  0
    9.8537   -6.8654    8.4947 H   0  0  0  0  0  0  0  0  0  0  0  0
   10.1729   -9.7646    6.4587 H   0  0  0  0  0  0  0  0  0  0  0  0
    9.3122  -11.3213    8.9256 H   0  0  0  0  0  0  0  0  0  0  0  0
   10.3648  -11.7743    7.6705 H   0  0  0  0  0  0  0  0  0  0  0  0
    8.8034  -13.1389    6.9389 H   0  0  0  0  0  0  0  0  0  0  0  0
    4.7138  -13.3910    7.9638 H   0  0  0  0  0  0  0  0  0  0  0  0
    5.0123  -16.2246    7.8081 H   0  0  0  0  0  0  0  0  0  0  0  0
    4.2452  -15.7369    6.3000 H   0  0  0  0  0  0  0  0  0  0  0  0
    2.2049  -14.9867    7.5092 H   0  0  0  0  0  0  0  0  0  0  0  0
    3.0103  -15.2044    9.0562 H   0  0  0  0  0  0  0  0  0  0  0  0
    3.0920  -17.8083    8.0573 H   0  0  0  0  0  0  0  0  0  0  0  0
    0.5937  -16.5500    6.9156 H   0  0  0  0  0  0  0  0  0  0  0  0
    1.5059  -17.9646    6.3864 H   0  0  0  0  0  0  0  0  0  0  0  0
   -0.8018  -17.8441    8.2053 H   0  0  0  0  0  0  0  0  0  0  0  0
   -0.0152  -19.2905    7.5548 H   0  0  0  0  0  0  0  0  0  0  0  0
    0.1506  -18.6916   10.1043 H   0  0  0  0  0  0  0  0  0  0  0  0
    2.4107  -17.5717   10.3457 H   0  0  0  0  0  0  0  0  0  0  0  0
    1.0244  -16.5441    9.9374 H   0  0  0  0  0  0  0  0  0  0  0  0
   11.9188   -7.6479    6.9627 H   0  0  0  0  0  0  0  0  0  0  0  0
   13.8256   -7.1690    8.7401 H   0  0  0  0  0  0  0  0  0  0  0  0
   13.6907   -8.8810   10.7319 H   0  0  0  0  0  0  0  0  0  0  0  0
  1  2  1  0
  2  3  1  0
  2  4  1  0
  4  5  1  0
  5  6  1  0
  6  7  1  0
  7  8  2  0
  7  9  1  0
  9 10  2  0
  9 11  1  0
 11 12  1  0
 12 13  1  0
 13 14  1  0
 14 15  1  0
 15 16  1  0
 16 17  1  0
 17 18  1  0
  4 19  1  0
 19 20  2  0
 20 21  1  0
 21 22  2  0
 22 23  1  0
 18 14  1  0
 23 19  1  0
  1 24  1  0
  1 25  1  0
  1 26  1  0
  3 27  1  0
  3 28  1  0
  3 29  1  0
  4 30  1  0
  5 31  1  0
  5 32  1  0
  6 33  1  0
 11 34  1  0
 12 35  1  0
 12 36  1  0
 13 37  1  0
 13 38  1  0
 14 39  1  0
 15 40  1  0
 15 41  1  0
 16 42  1  0
 16 43  1  0
 17 44  1  0
 18 45  1  0
 18 46  1  0
 20 47  1  0
 21 48  1  0
 22 49  1  0
M  END
>  <Energy>  (1061) 
135.22355952897524

>  <compound_id>  (1061) 
6319

>  <target_id>  (1061) 
1

>  <reference_id>  (1061) 
30

>  <inspiration_ids>  (1061) 
[30, 76]

>  <energy_score>  (1061) 
0.725781263452518

>  <distance_score>  (1061) 
15.718244474463757

>  <path>  (1061) 
/opt/xchem-fragalysis-2/maxwin/BulkDock/SCRATCH/511018/C6319-P30/C6319-P30.minimised.mol

>  <scratch_subdir>  (1061) 
/opt/xchem-fragalysis-2/maxwin/BulkDock/SCRATCH/511018/C6319-P30

>  <fragmenstein_runtime>  (1061) 
15.03786039352417

>  <fragmenstein_outcome>  (1061) 
too moved

>  <fragmenstein_mode>  (1061) 
expansion

>  <fragmenstein_error>  (1061) 


$$$$
C6319-P76
     RDKit          3D

 49 50  0  0  0  0  0  0  0  0999 V2000
    4.4032   -2.6986    9.4829 C   0  0  0  0  0  0  0  0  0  0  0  0
    4.6139   -2.9197   10.9231 N   0  0  0  0  0  0  0  0  0  0  0  0
    5.3421   -1.7550   11.4596 C   0  0  0  0  0  0  0  0  0  0  0  0
    3.3042   -3.3550   11.5725 C   0  0  0  0  0  0  0  0  0  0  0  0
    3.0471   -4.9287   11.2505 C   0  0  0  0  0  0  0  0  0  0  0  0
    1.8283   -5.6572   10.7404 N   0  0  0  0  0  0  0  0  0  0  0  0
    0.5020   -5.8357   11.3258 C   0  0  0  0  0  0  0  0  0  0  0  0
    0.0205   -5.3792   12.3234 O   0  0  0  0  0  0  0  0  0  0  0  0
   -0.3741   -6.9434   10.4695 C   0  0  0  0  0  0  0  0  0  0  0  0
   -0.2599   -6.8527    9.2769 O   0  0  0  0  0  0  0  0  0  0  0  0
   -1.1525   -7.9001   11.2949 N   0  0  0  0  0  0  0  0  0  0  0  0
   -2.1220   -8.9937   10.8945 C   0  0  0  0  0  0  0  0  0  0  0  0
   -2.2160  -10.3335   11.7591 C   0  0  0  0  0  0  0  0  0  0  0  0
   -3.1917  -11.4626   11.2620 C   0  0  0  0  0  0  0  0  0  0  0  0
   -2.8324  -12.8695   11.7771 C   0  0  0  0  0  0  0  0  0  0  0  0
   -4.1366  -13.6401   11.6741 C   0  0  0  0  0  0  0  0  0  0  0  0
   -5.1071  -12.6631   12.1617 N   0  0  0  0  0  0  0  0  0  0  0  0
   -4.6637  -11.3385   11.6924 C   0  0  0  0  0  0  0  0  0  0  0  0
    3.2854   -2.9923   13.0772 C   0  0  0  0  0  0  0  0  0  0  0  0
    3.2144   -1.7121   13.6188 C   0  0  0  0  0  0  0  0  0  0  0  0
    3.3215   -1.6838   15.0379 C   0  0  0  0  0  0  0  0  0  0  0  0
    3.3616   -2.9503   15.5639 C   0  0  0  0  0  0  0  0  0  0  0  0
    3.3184   -4.1389   14.3510 S   0  0  0  0  0  0  0  0  0  0  0  0
    3.7629   -1.8284    9.2979 H   0  0  0  0  0  0  0  0  0  0  0  0
    3.9452   -3.5651    8.9962 H   0  0  0  0  0  0  0  0  0  0  0  0
    5.3610   -2.5363    8.9750 H   0  0  0  0  0  0  0  0  0  0  0  0
    6.2811   -1.6172   10.9105 H   0  0  0  0  0  0  0  0  0  0  0  0
    5.6355   -1.8935   12.5033 H   0  0  0  0  0  0  0  0  0  0  0  0
    4.7635   -0.8307   11.3607 H   0  0  0  0  0  0  0  0  0  0  0  0
    2.4786   -2.7919   11.1148 H   0  0  0  0  0  0  0  0  0  0  0  0
    3.4361   -5.5313   12.0662 H   0  0  0  0  0  0  0  0  0  0  0  0
    3.7453   -5.1753   10.4401 H   0  0  0  0  0  0  0  0  0  0  0  0
    1.8617   -6.1320    9.8419 H   0  0  0  0  0  0  0  0  0  0  0  0
   -1.0840   -7.6298   12.2713 H   0  0  0  0  0  0  0  0  0  0  0  0
   -1.8809   -9.2511    9.8581 H   0  0  0  0  0  0  0  0  0  0  0  0
   -3.1087   -8.5179   10.8906 H   0  0  0  0  0  0  0  0  0  0  0  0
   -2.4567  -10.0620   12.7938 H   0  0  0  0  0  0  0  0  0  0  0  0
   -1.2006  -10.7495   11.7791 H   0  0  0  0  0  0  0  0  0  0  0  0
   -3.1511  -11.4899   10.1653 H   0  0  0  0  0  0  0  0  0  0  0  0
   -2.4947  -12.8223   12.8195 H   0  0  0  0  0  0  0  0  0  0  0  0
   -2.0362  -13.3282   11.1847 H   0  0  0  0  0  0  0  0  0  0  0  0
   -4.1319  -14.5469   12.2847 H   0  0  0  0  0  0  0  0  0  0  0  0
   -4.3502  -13.9097   10.6336 H   0  0  0  0  0  0  0  0  0  0  0  0
   -6.0401  -12.8803   11.8148 H   0  0  0  0  0  0  0  0  0  0  0  0
   -5.2735  -11.0117   10.8425 H   0  0  0  0  0  0  0  0  0  0  0  0
   -4.7945  -10.6087   12.4976 H   0  0  0  0  0  0  0  0  0  0  0  0
    3.1259   -0.8211   13.0086 H   0  0  0  0  0  0  0  0  0  0  0  0
    3.3182   -0.7836   15.6394 H   0  0  0  0  0  0  0  0  0  0  0  0
    3.3910   -3.2347   16.6063 H   0  0  0  0  0  0  0  0  0  0  0  0
  1  2  1  0
  2  3  1  0
  2  4  1  0
  4  5  1  0
  5  6  1  0
  6  7  1  0
  7  8  2  0
  7  9  1  0
  9 10  2  0
  9 11  1  0
 11 12  1  0
 12 13  1  0
 13 14  1  0
 14 15  1  0
 15 16  1  0
 16 17  1  0
 17 18  1  0
  4 19  1  0
 19 20  2  0
 20 21  1  0
 21 22  2  0
 22 23  1  0
 18 14  1  0
 23 19  1  0
  1 24  1  0
  1 25  1  0
  1 26  1  0
  3 27  1  0
  3 28  1  0
  3 29  1  0
  4 30  1  0
  5 31  1  0
  5 32  1  0
  6 33  1  0
 11 34  1  0
 12 35  1  0
 12 36  1  0
 13 37  1  0
 13 38  1  0
 14 39  1  0
 15 40  1  0
 15 41  1  0
 16 42  1  0
 16 43  1  0
 17 44  1  0
 18 45  1  0
 18 46  1  0
 20 47  1  0
 21 48  1  0
 22 49  1  0
M  END
>  <Energy>  (1062) 
122.00207466509667

>  <compound_id>  (1062) 
6319

>  <target_id>  (1062) 
1

>  <reference_id>  (1062) 
76

>  <inspiration_ids>  (1062) 
[30, 76]

>  <energy_score>  (1062) 
-12.495703600421052

>  <distance_score>  (1062) 
15.173651185655073

>  <path>  (1062) 
/opt/xchem-fragalysis-2/maxwin/BulkDock/SCRATCH/511018/C6319-P76/C6319-P76.minimised.mol

>  <scratch_subdir>  (1062) 
/opt/xchem-fragalysis-2/maxwin/BulkDock/SCRATCH/511018/C6319-P76

>  <fragmenstein_runtime>  (1062) 
33.60766839981079

>  <fragmenstein_outcome>  (1062) 
too moved

>  <fragmenstein_mode>  (1062) 
expansion

>  <fragmenstein_error>  (1062) 


$$$$
C6334-P30
     RDKit          3D

 47 49  0  0  0  0  0  0  0  0999 V2000
   -0.2990   -5.0087   10.1369 C   0  0  0  0  0  0  0  0  0  0  0  0
   -0.0091   -5.4147   11.4678 O   0  0  0  0  0  0  0  0  0  0  0  0
   -0.4509   -4.4682   12.4496 C   0  0  0  0  0  0  0  0  0  0  0  0
   -1.5683   -5.1683   13.3368 C   0  0  0  0  0  0  0  0  0  0  0  0
   -2.5868   -6.0563   12.7034 N   0  0  0  0  0  0  0  0  0  0  0  0
   -3.7684   -6.7327   13.2751 C   0  0  0  0  0  0  0  0  0  0  0  0
   -4.2469   -6.6714   14.3731 O   0  0  0  0  0  0  0  0  0  0  0  0
   -4.5158   -7.6925   12.1924 C   0  0  0  0  0  0  0  0  0  0  0  0
   -4.3004   -7.4013   11.0393 O   0  0  0  0  0  0  0  0  0  0  0  0
   -5.3143   -8.7895   12.7676 N   0  0  0  0  0  0  0  0  0  0  0  0
   -6.7244   -8.3454   12.9842 C   0  0  0  0  0  0  0  0  0  0  0  0
   -7.6192   -9.4356   13.5717 C   0  0  0  0  0  0  0  0  0  0  0  0
   -7.4985  -10.3947   12.4466 C   0  0  0  0  0  0  0  0  0  0  0  0
   -7.8797  -11.8562   12.7014 C   0  0  0  0  0  0  0  0  0  0  0  0
   -7.6425  -12.9783   11.9188 C   0  0  0  0  0  0  0  0  0  0  0  0
   -8.1910  -14.1867   12.4535 C   0  0  0  0  0  0  0  0  0  0  0  0
   -8.9022  -13.9534   13.6046 C   0  0  0  0  0  0  0  0  0  0  0  0
   -8.9224  -12.2890   14.0116 S   0  0  0  0  0  0  0  0  0  0  0  0
   -6.0451   -9.9997   12.0726 C   0  0  0  0  0  0  0  0  0  0  0  0
    0.7929   -4.0476   13.2906 C   0  0  0  0  0  0  0  0  0  0  0  0
    2.1300   -3.6815   12.5449 C   0  0  0  0  0  0  0  0  0  0  0  0
    2.4395   -2.7353   13.7222 C   0  0  0  0  0  0  0  0  0  0  0  0
    0.9046   -2.6189   13.9043 C   0  0  0  0  0  0  0  0  0  0  0  0
    0.2109   -4.0693    9.9036 H   0  0  0  0  0  0  0  0  0  0  0  0
   -1.3785   -4.8983    9.9974 H   0  0  0  0  0  0  0  0  0  0  0  0
    0.0643   -5.7820    9.4549 H   0  0  0  0  0  0  0  0  0  0  0  0
   -0.8885   -3.5875   11.9630 H   0  0  0  0  0  0  0  0  0  0  0  0
   -1.0592   -5.8046   14.0615 H   0  0  0  0  0  0  0  0  0  0  0  0
   -2.1050   -4.4151   13.9241 H   0  0  0  0  0  0  0  0  0  0  0  0
   -2.4244   -6.4083   11.7621 H   0  0  0  0  0  0  0  0  0  0  0  0
   -6.6781   -7.5189   13.7055 H   0  0  0  0  0  0  0  0  0  0  0  0
   -7.1321   -7.8896   12.0649 H   0  0  0  0  0  0  0  0  0  0  0  0
   -8.6422   -9.0847   13.7359 H   0  0  0  0  0  0  0  0  0  0  0  0
   -7.2056   -9.8104   14.5153 H   0  0  0  0  0  0  0  0  0  0  0  0
   -8.1508  -10.0656   11.6228 H   0  0  0  0  0  0  0  0  0  0  0  0
   -7.0821  -12.9467   10.9948 H   0  0  0  0  0  0  0  0  0  0  0  0
   -8.0681  -15.1645   12.0057 H   0  0  0  0  0  0  0  0  0  0  0  0
   -9.4279  -14.6714   14.2183 H   0  0  0  0  0  0  0  0  0  0  0  0
   -5.3838  -10.8471   12.2617 H   0  0  0  0  0  0  0  0  0  0  0  0
   -5.9765   -9.8142   10.9901 H   0  0  0  0  0  0  0  0  0  0  0  0
    0.9722   -4.7849   14.0832 H   0  0  0  0  0  0  0  0  0  0  0  0
    1.9820   -3.1610   11.5910 H   0  0  0  0  0  0  0  0  0  0  0  0
    2.8444   -4.4923   12.3919 H   0  0  0  0  0  0  0  0  0  0  0  0
    2.9613   -1.8100   13.4672 H   0  0  0  0  0  0  0  0  0  0  0  0
    2.9524   -3.2203   14.5605 H   0  0  0  0  0  0  0  0  0  0  0  0
    0.4446   -1.8312   13.2959 H   0  0  0  0  0  0  0  0  0  0  0  0
    0.5575   -2.5176   14.9358 H   0  0  0  0  0  0  0  0  0  0  0  0
  1  2  1  0
  2  3  1  0
  3  4  1  0
  4  5  1  0
  5  6  1  0
  6  7  2  0
  6  8  1  0
  8  9  2  0
  8 10  1  0
 10 11  1  0
 11 12  1  0
 12 13  1  0
 13 14  1  0
 14 15  2  0
 15 16  1  0
 16 17  2  0
 17 18  1  0
 13 19  1  0
  3 20  1  0
 20 21  1  0
 21 22  1  0
 22 23  1  0
 19 10  1  0
 23 20  1  0
 18 14  1  0
  1 24  1  0
  1 25  1  0
  1 26  1  0
  3 27  1  0
  4 28  1  0
  4 29  1  0
  5 30  1  0
 11 31  1  0
 11 32  1  0
 12 33  1  0
 12 34  1  0
 13 35  1  0
 15 36  1  0
 16 37  1  0
 17 38  1  0
 19 39  1  0
 19 40  1  0
 20 41  1  0
 21 42  1  0
 21 43  1  0
 22 44  1  0
 22 45  1  0
 23 46  1  0
 23 47  1  0
M  END
>  <Energy>  (1063) 
174.12743484919952

>  <compound_id>  (1063) 
6334

>  <target_id>  (1063) 
1

>  <reference_id>  (1063) 
30

>  <inspiration_ids>  (1063) 
[30, 76]

>  <energy_score>  (1063) 
38.796801807517

>  <distance_score>  (1063) 
15.234930450592614

>  <path>  (1063) 
/opt/xchem-fragalysis-2/maxwin/BulkDock/SCRATCH/511018/C6334-P30/C6334-P30.minimised.mol

>  <scratch_subdir>  (1063) 
/opt/xchem-fragalysis-2/maxwin/BulkDock/SCRATCH/511018/C6334-P30

>  <fragmenstein_runtime>  (1063) 
23.86831021308899

>  <fragmenstein_outcome>  (1063) 
too moved

>  <fragmenstein_mode>  (1063) 
expansion

>  <fragmenstein_error>  (1063) 


$$$$
C6334-P76
     RDKit          3D

 47 49  0  0  0  0  0  0  0  0999 V2000
    3.1216  -15.7934    5.6078 C   0  0  0  0  0  0  0  0  0  0  0  0
    3.8937  -15.4213    6.7412 O   0  0  0  0  0  0  0  0  0  0  0  0
    3.0906  -15.0421    7.8716 C   0  0  0  0  0  0  0  0  0  0  0  0
    2.5317  -16.3652    8.6135 C   0  0  0  0  0  0  0  0  0  0  0  0
    1.1411  -16.9282    8.3422 N   0  0  0  0  0  0  0  0  0  0  0  0
    0.0607  -17.3321    9.2748 C   0  0  0  0  0  0  0  0  0  0  0  0
   -0.0105  -17.2397   10.4629 O   0  0  0  0  0  0  0  0  0  0  0  0
   -1.3039  -17.9969    8.5066 C   0  0  0  0  0  0  0  0  0  0  0  0
   -1.0692  -18.4565    7.4109 O   0  0  0  0  0  0  0  0  0  0  0  0
   -2.5758  -18.0165    9.3233 N   0  0  0  0  0  0  0  0  0  0  0  0
   -3.4294  -16.7713    9.0167 C   0  0  0  0  0  0  0  0  0  0  0  0
   -4.9040  -16.6983    9.5403 C   0  0  0  0  0  0  0  0  0  0  0  0
   -5.2386  -18.1207    9.7135 C   0  0  0  0  0  0  0  0  0  0  0  0
   -6.1095  -18.9953   11.1170 C   0  0  0  0  0  0  0  0  0  0  0  0
   -7.4569  -19.7669   11.1143 C   0  0  0  0  0  0  0  0  0  0  0  0
   -7.8736  -20.8318   11.8539 C   0  0  0  0  0  0  0  0  0  0  0  0
   -6.8504  -20.9808   12.7381 C   0  0  0  0  0  0  0  0  0  0  0  0
   -5.1895  -19.8332   12.2256 S   0  0  0  0  0  0  0  0  0  0  0  0
   -3.9166  -18.7189    9.0670 C   0  0  0  0  0  0  0  0  0  0  0  0
    3.9662  -14.0980    8.7672 C   0  0  0  0  0  0  0  0  0  0  0  0
    5.4861  -14.3363    9.0873 C   0  0  0  0  0  0  0  0  0  0  0  0
    5.6365  -12.7991    9.1861 C   0  0  0  0  0  0  0  0  0  0  0  0
    4.4509  -12.7174    8.1947 C   0  0  0  0  0  0  0  0  0  0  0  0
    3.8082  -16.0173    4.7867 H   0  0  0  0  0  0  0  0  0  0  0  0
    2.4688  -14.9717    5.2978 H   0  0  0  0  0  0  0  0  0  0  0  0
    2.5318  -16.6896    5.8147 H   0  0  0  0  0  0  0  0  0  0  0  0
    2.2402  -14.4599    7.5073 H   0  0  0  0  0  0  0  0  0  0  0  0
    3.2151  -17.1969    8.4091 H   0  0  0  0  0  0  0  0  0  0  0  0
    2.5425  -16.1907    9.6905 H   0  0  0  0  0  0  0  0  0  0  0  0
    0.9011  -17.2331    7.4024 H   0  0  0  0  0  0  0  0  0  0  0  0
   -2.8780  -15.9151    9.4224 H   0  0  0  0  0  0  0  0  0  0  0  0
   -3.4136  -16.6135    7.9249 H   0  0  0  0  0  0  0  0  0  0  0  0
   -5.4841  -16.2549    8.7147 H   0  0  0  0  0  0  0  0  0  0  0  0
   -5.1715  -16.0405   10.3492 H   0  0  0  0  0  0  0  0  0  0  0  0
   -5.9814  -18.1740    8.8928 H   0  0  0  0  0  0  0  0  0  0  0  0
   -8.0994  -19.8457   10.2318 H   0  0  0  0  0  0  0  0  0  0  0  0
   -8.7331  -21.4762   11.7178 H   0  0  0  0  0  0  0  0  0  0  0  0
   -6.7478  -21.8078   13.3892 H   0  0  0  0  0  0  0  0  0  0  0  0
   -3.7582  -19.7393    9.4346 H   0  0  0  0  0  0  0  0  0  0  0  0
   -4.0318  -18.8363    7.9760 H   0  0  0  0  0  0  0  0  0  0  0  0
    3.3959  -13.8906    9.6728 H   0  0  0  0  0  0  0  0  0  0  0  0
    5.7133  -14.8907    9.9997 H   0  0  0  0  0  0  0  0  0  0  0  0
    6.0539  -14.7812    8.2614 H   0  0  0  0  0  0  0  0  0  0  0  0
    5.4143  -12.3942   10.1799 H   0  0  0  0  0  0  0  0  0  0  0  0
    6.5846  -12.3882    8.8318 H   0  0  0  0  0  0  0  0  0  0  0  0
    3.7695  -11.8759    8.3428 H   0  0  0  0  0  0  0  0  0  0  0  0
    4.7513  -12.7483    7.1408 H   0  0  0  0  0  0  0  0  0  0  0  0
  1  2  1  0
  2  3  1  0
  3  4  1  0
  4  5  1  0
  5  6  1  0
  6  7  2  0
  6  8  1  0
  8  9  2  0
  8 10  1  0
 10 11  1  0
 11 12  1  0
 12 13  1  0
 13 14  1  0
 14 15  2  0
 15 16  1  0
 16 17  2  0
 17 18  1  0
 13 19  1  0
  3 20  1  0
 20 21  1  0
 21 22  1  0
 22 23  1  0
 19 10  1  0
 23 20  1  0
 18 14  1  0
  1 24  1  0
  1 25  1  0
  1 26  1  0
  3 27  1  0
  4 28  1  0
  4 29  1  0
  5 30  1  0
 11 31  1  0
 11 32  1  0
 12 33  1  0
 12 34  1  0
 13 35  1  0
 15 36  1  0
 16 37  1  0
 17 38  1  0
 19 39  1  0
 19 40  1  0
 20 41  1  0
 21 42  1  0
 21 43  1  0
 22 44  1  0
 22 45  1  0
 23 46  1  0
 23 47  1  0
M  END
>  <Energy>  (1064) 
298.94995504669811

>  <compound_id>  (1064) 
6334

>  <target_id>  (1064) 
1

>  <reference_id>  (1064) 
76

>  <inspiration_ids>  (1064) 
[30, 76]

>  <energy_score>  (1064) 
163.6193220050235

>  <distance_score>  (1064) 
13.627619142584294

>  <path>  (1064) 
/opt/xchem-fragalysis-2/maxwin/BulkDock/SCRATCH/511018/C6334-P76/C6334-P76.minimised.mol

>  <scratch_subdir>  (1064) 
/opt/xchem-fragalysis-2/maxwin/BulkDock/SCRATCH/511018/C6334-P76

>  <fragmenstein_runtime>  (1064) 
24.580662488937378

>  <fragmenstein_outcome>  (1064) 
too moved

>  <fragmenstein_mode>  (1064) 
expansion

>  <fragmenstein_error>  (1064) 


$$$$
C6335-P30
     RDKit          3D

 47 49  0  0  0  0  0  0  0  0999 V2000
   -6.6769  -18.2349   11.1840 O   0  0  0  0  0  0  0  0  0  0  0  0
   -6.3152  -18.5382   12.2036 C   0  0  0  0  0  0  0  0  0  0  0  0
   -5.8092  -17.5531   13.2970 N   0  0  0  0  0  0  0  0  0  0  0  0
   -5.4571  -15.6615   13.2473 C   0  0  0  0  0  0  0  0  0  0  0  0
   -3.6856  -14.4207   13.0054 C   0  0  0  0  0  0  0  0  0  0  0  0
   -1.7038  -13.8907   13.5474 O   0  0  0  0  0  0  0  0  0  0  0  0
   -0.3673  -13.0398   12.3607 C   0  0  0  0  0  0  0  0  0  0  0  0
    0.4560  -11.4130   11.4306 C   0  0  0  0  0  0  0  0  0  0  0  0
    0.7957  -10.1724    9.8046 C   0  0  0  0  0  0  0  0  0  0  0  0
    1.9645   -9.5131   10.3664 C   0  0  0  0  0  0  0  0  0  0  0  0
    2.1900  -10.8006   11.1063 C   0  0  0  0  0  0  0  0  0  0  0  0
   -6.1992  -20.4104   12.3026 C   0  0  0  0  0  0  0  0  0  0  0  0
   -5.1126  -20.7106   12.6780 O   0  0  0  0  0  0  0  0  0  0  0  0
   -7.2948  -21.6960   11.9933 N   0  0  0  0  0  0  0  0  0  0  0  0
   -8.0916  -22.0568   13.1466 C   0  0  0  0  0  0  0  0  0  0  0  0
   -9.1473  -23.2125   13.1194 C   0  0  0  0  0  0  0  0  0  0  0  0
   -8.4635  -24.2630   12.3279 C   0  0  0  0  0  0  0  0  0  0  0  0
   -7.0847  -23.4751   12.0101 C   0  0  0  0  0  0  0  0  0  0  0  0
   -6.2347  -24.3204   11.0353 C   0  0  0  0  0  0  0  0  0  0  0  0
   -4.9190  -24.7052   11.2202 C   0  0  0  0  0  0  0  0  0  0  0  0
   -4.4900  -25.7391   10.3378 C   0  0  0  0  0  0  0  0  0  0  0  0
   -5.4878  -26.1200    9.4787 C   0  0  0  0  0  0  0  0  0  0  0  0
   -6.9384  -25.2980    9.7884 S   0  0  0  0  0  0  0  0  0  0  0  0
   -5.4843  -18.0614   14.0368 H   0  0  0  0  0  0  0  0  0  0  0  0
   -6.3658  -15.2430   12.8095 H   0  0  0  0  0  0  0  0  0  0  0  0
   -5.1254  -16.1142   14.1989 H   0  0  0  0  0  0  0  0  0  0  0  0
   -4.2170  -13.5665   12.6751 H   0  0  0  0  0  0  0  0  0  0  0  0
   -3.7462  -13.7362   13.7821 H   0  0  0  0  0  0  0  0  0  0  0  0
   -0.3831  -13.8341   11.6037 H   0  0  0  0  0  0  0  0  0  0  0  0
    0.4696  -13.2753   13.0104 H   0  0  0  0  0  0  0  0  0  0  0  0
    0.8578  -12.4143   11.1691 H   0  0  0  0  0  0  0  0  0  0  0  0
    0.0926   -9.4442    9.3374 H   0  0  0  0  0  0  0  0  0  0  0  0
    1.2921  -10.4006    8.8160 H   0  0  0  0  0  0  0  0  0  0  0  0
    2.7781   -9.2794    9.6638 H   0  0  0  0  0  0  0  0  0  0  0  0
    1.6900   -8.5418   10.7714 H   0  0  0  0  0  0  0  0  0  0  0  0
    2.8500  -10.4559   11.8541 H   0  0  0  0  0  0  0  0  0  0  0  0
    2.7884  -11.4881   10.4811 H   0  0  0  0  0  0  0  0  0  0  0  0
   -7.6854  -21.8449   14.1106 H   0  0  0  0  0  0  0  0  0  0  0  0
   -8.8965  -21.4181   12.8010 H   0  0  0  0  0  0  0  0  0  0  0  0
   -9.4413  -23.5169   14.1300 H   0  0  0  0  0  0  0  0  0  0  0  0
  -10.0807  -22.9195   12.6174 H   0  0  0  0  0  0  0  0  0  0  0  0
   -9.0898  -24.5501   11.4705 H   0  0  0  0  0  0  0  0  0  0  0  0
   -8.3374  -25.2316   12.8145 H   0  0  0  0  0  0  0  0  0  0  0  0
   -6.3956  -23.5287   12.8169 H   0  0  0  0  0  0  0  0  0  0  0  0
   -4.2843  -24.2829   11.9893 H   0  0  0  0  0  0  0  0  0  0  0  0
   -3.4937  -26.1634   10.3289 H   0  0  0  0  0  0  0  0  0  0  0  0
   -5.4371  -26.8642    8.6963 H   0  0  0  0  0  0  0  0  0  0  0  0
  1  2  2  0
  2  3  1  0
  3  4  1  0
  4  5  1  0
  5  6  1  0
  6  7  1  0
  7  8  1  0
  8  9  1  0
  9 10  1  0
 10 11  1  0
  2 12  1  0
 12 13  2  0
 12 14  1  0
 14 15  1  0
 15 16  1  0
 16 17  1  0
 17 18  1  0
 18 19  1  0
 19 20  2  0
 20 21  1  0
 21 22  2  0
 22 23  1  0
 11  8  1  0
 18 14  1  0
 23 19  1  0
  3 24  1  0
  4 25  1  0
  4 26  1  0
  5 27  1  0
  5 28  1  0
  7 29  1  0
  7 30  1  0
  8 31  1  0
  9 32  1  0
  9 33  1  0
 10 34  1  0
 10 35  1  0
 11 36  1  0
 11 37  1  0
 15 38  1  0
 15 39  1  0
 16 40  1  0
 16 41  1  0
 17 42  1  0
 17 43  1  0
 18 44  1  0
 20 45  1  0
 21 46  1  0
 22 47  1  0
M  END
>  <Energy>  (1065) 
1121.1272411876084

>  <compound_id>  (1065) 
6335

>  <target_id>  (1065) 
1

>  <reference_id>  (1065) 
30

>  <inspiration_ids>  (1065) 
[30, 76]

>  <energy_score>  (1065) 
991.4753474289582

>  <distance_score>  (1065) 
10.693171431281073

>  <path>  (1065) 
/opt/xchem-fragalysis-2/maxwin/BulkDock/SCRATCH/511018/C6335-P30/C6335-P30.minimised.mol

>  <scratch_subdir>  (1065) 
/opt/xchem-fragalysis-2/maxwin/BulkDock/SCRATCH/511018/C6335-P30

>  <fragmenstein_runtime>  (1065) 
24.2900710105896

>  <fragmenstein_outcome>  (1065) 
too moved

>  <fragmenstein_mode>  (1065) 
expansion

>  <fragmenstein_error>  (1065) 


$$$$
C6335-P76
     RDKit          3D

 47 49  0  0  0  0  0  0  0  0999 V2000
   -2.9527  -17.1597   18.7193 O   0  0  0  0  0  0  0  0  0  0  0  0
   -3.6136  -17.5791   17.8186 C   0  0  0  0  0  0  0  0  0  0  0  0
   -3.5493  -16.5546   16.1789 N   0  0  0  0  0  0  0  0  0  0  0  0
   -2.4053  -14.9504   15.6219 C   0  0  0  0  0  0  0  0  0  0  0  0
   -0.9953  -14.1414   14.1677 C   0  0  0  0  0  0  0  0  0  0  0  0
    0.4767  -13.1871   13.5990 O   0  0  0  0  0  0  0  0  0  0  0  0
    0.4658  -12.2621   12.1617 C   0  0  0  0  0  0  0  0  0  0  0  0
    1.9720  -11.4320   11.3524 C   0  0  0  0  0  0  0  0  0  0  0  0
    3.1840  -12.2788   10.3857 C   0  0  0  0  0  0  0  0  0  0  0  0
    3.7084  -10.9570    9.8514 C   0  0  0  0  0  0  0  0  0  0  0  0
    3.2745  -10.2907   11.1359 C   0  0  0  0  0  0  0  0  0  0  0  0
   -4.3676  -19.3468   18.3419 C   0  0  0  0  0  0  0  0  0  0  0  0
   -3.7949  -20.0460   19.1297 O   0  0  0  0  0  0  0  0  0  0  0  0
   -5.4392  -19.5785   17.6260 N   0  0  0  0  0  0  0  0  0  0  0  0
   -6.7624  -19.0933   18.4484 C   0  0  0  0  0  0  0  0  0  0  0  0
   -6.8261  -19.9866   19.5964 C   0  0  0  0  0  0  0  0  0  0  0  0
   -6.8696  -21.2653   18.8279 C   0  0  0  0  0  0  0  0  0  0  0  0
   -6.6554  -21.3556   17.3224 C   0  0  0  0  0  0  0  0  0  0  0  0
   -7.6171  -22.3786   15.5534 C   0  0  0  0  0  0  0  0  0  0  0  0
   -7.5568  -22.1750   13.9189 C   0  0  0  0  0  0  0  0  0  0  0  0
   -8.5143  -22.6797   12.9191 C   0  0  0  0  0  0  0  0  0  0  0  0
   -9.5196  -23.2685   13.5785 C   0  0  0  0  0  0  0  0  0  0  0  0
   -9.3472  -22.9697   15.1997 S   0  0  0  0  0  0  0  0  0  0  0  0
   -4.0639  -17.0424   15.4851 H   0  0  0  0  0  0  0  0  0  0  0  0
   -3.0364  -14.2062   16.0852 H   0  0  0  0  0  0  0  0  0  0  0  0
   -1.7646  -14.8629   16.4908 H   0  0  0  0  0  0  0  0  0  0  0  0
   -1.1775  -13.1461   13.9175 H   0  0  0  0  0  0  0  0  0  0  0  0
   -0.3757  -14.8043   13.5189 H   0  0  0  0  0  0  0  0  0  0  0  0
   -0.2917  -11.4946   12.2725 H   0  0  0  0  0  0  0  0  0  0  0  0
    0.1522  -13.0337   11.4751 H   0  0  0  0  0  0  0  0  0  0  0  0
    1.2279  -10.7372   10.9432 H   0  0  0  0  0  0  0  0  0  0  0  0
    3.9996  -12.8042   10.8894 H   0  0  0  0  0  0  0  0  0  0  0  0
    2.9135  -12.9603    9.5804 H   0  0  0  0  0  0  0  0  0  0  0  0
    3.1871  -10.5872    8.9614 H   0  0  0  0  0  0  0  0  0  0  0  0
    4.7821  -10.9259    9.6439 H   0  0  0  0  0  0  0  0  0  0  0  0
    3.0043   -9.2597   10.8720 H   0  0  0  0  0  0  0  0  0  0  0  0
    4.0892  -10.2773   11.8693 H   0  0  0  0  0  0  0  0  0  0  0  0
   -6.5063  -18.0985   18.8318 H   0  0  0  0  0  0  0  0  0  0  0  0
   -7.6968  -18.9552   17.8959 H   0  0  0  0  0  0  0  0  0  0  0  0
   -7.7073  -19.8028   20.2239 H   0  0  0  0  0  0  0  0  0  0  0  0
   -5.9661  -19.9340   20.2702 H   0  0  0  0  0  0  0  0  0  0  0  0
   -6.0864  -21.8895   19.2871 H   0  0  0  0  0  0  0  0  0  0  0  0
   -7.9636  -21.2962   18.9714 H   0  0  0  0  0  0  0  0  0  0  0  0
   -7.6911  -20.8873   17.3064 H   0  0  0  0  0  0  0  0  0  0  0  0
   -6.7985  -21.5833   13.4256 H   0  0  0  0  0  0  0  0  0  0  0  0
   -8.4193  -22.5504   11.8493 H   0  0  0  0  0  0  0  0  0  0  0  0
  -10.4043  -23.7317   13.1673 H   0  0  0  0  0  0  0  0  0  0  0  0
  1  2  2  0
  2  3  1  0
  3  4  1  0
  4  5  1  0
  5  6  1  0
  6  7  1  0
  7  8  1  0
  8  9  1  0
  9 10  1  0
 10 11  1  0
  2 12  1  0
 12 13  2  0
 12 14  1  0
 14 15  1  0
 15 16  1  0
 16 17  1  0
 17 18  1  0
 18 19  1  0
 19 20  2  0
 20 21  1  0
 21 22  2  0
 22 23  1  0
 11  8  1  0
 18 14  1  0
 23 19  1  0
  3 24  1  0
  4 25  1  0
  4 26  1  0
  5 27  1  0
  5 28  1  0
  7 29  1  0
  7 30  1  0
  8 31  1  0
  9 32  1  0
  9 33  1  0
 10 34  1  0
 10 35  1  0
 11 36  1  0
 11 37  1  0
 15 38  1  0
 15 39  1  0
 16 40  1  0
 16 41  1  0
 17 42  1  0
 17 43  1  0
 18 44  1  0
 20 45  1  0
 21 46  1  0
 22 47  1  0
M  END
>  <Energy>  (1066) 
1316.9353120997305

>  <compound_id>  (1066) 
6335

>  <target_id>  (1066) 
1

>  <reference_id>  (1066) 
76

>  <inspiration_ids>  (1066) 
[30, 76]

>  <energy_score>  (1066) 
1187.2834183410828

>  <distance_score>  (1066) 
11.24238810648353

>  <path>  (1066) 
/opt/xchem-fragalysis-2/maxwin/BulkDock/SCRATCH/511018/C6335-P76/C6335-P76.minimised.mol

>  <scratch_subdir>  (1066) 
/opt/xchem-fragalysis-2/maxwin/BulkDock/SCRATCH/511018/C6335-P76

>  <fragmenstein_runtime>  (1066) 
29.270642518997192

>  <fragmenstein_outcome>  (1066) 
too moved

>  <fragmenstein_mode>  (1066) 
expansion

>  <fragmenstein_error>  (1066) 


$$$$
C6340-P30
     RDKit          3D

 54 58  0  0  0  0  0  0  0  0999 V2000
   -0.7412  -17.5086   17.0995 O   0  0  0  0  0  0  0  0  0  0  0  0
   -1.6703  -16.7394   17.0583 C   0  0  0  0  0  0  0  0  0  0  0  0
   -0.9449  -14.8098   16.6588 N   0  0  0  0  0  0  0  0  0  0  0  0
    1.0656  -13.9748   16.1786 C   0  0  0  0  0  0  0  0  0  0  0  0
    2.4719  -12.2465   15.3941 C   0  0  0  0  0  0  0  0  0  0  0  0
    4.4541  -11.5967   15.9657 C   0  0  0  0  0  0  0  0  0  0  0  0
    5.7646  -10.7552   14.7215 C   0  0  0  0  0  0  0  0  0  0  0  0
    7.6854  -10.2284   15.6626 C   0  0  0  0  0  0  0  0  0  0  0  0
    7.7851  -10.8308   17.2959 C   0  0  0  0  0  0  0  0  0  0  0  0
    5.8045  -11.5297   18.1571 S   0  0  0  0  0  0  0  0  0  0  0  0
    3.2462  -10.5255   14.2469 N   0  0  0  0  0  0  0  0  0  0  0  0
    3.6234   -9.9517   12.4670 C   0  0  0  0  0  0  0  0  0  0  0  0
    3.6794   -7.9986   11.8683 C   0  0  0  0  0  0  0  0  0  0  0  0
    4.3600   -7.4329   13.0870 C   0  0  0  0  0  0  0  0  0  0  0  0
    4.0389   -8.7928   13.9368 C   0  0  0  0  0  0  0  0  0  0  0  0
   -3.5635  -17.8897   17.4592 C   0  0  0  0  0  0  0  0  0  0  0  0
   -4.8554  -17.7963   18.5029 C   0  0  0  0  0  0  0  0  0  0  0  0
   -6.4347  -18.8156   18.7146 C   0  0  0  0  0  0  0  0  0  0  0  0
   -7.3255  -20.3008   18.0504 C   0  0  0  0  0  0  0  0  0  0  0  0
   -6.2811  -21.0939   17.2722 C   0  0  0  0  0  0  0  0  0  0  0  0
   -4.8025  -19.5419   17.3437 C   0  0  0  0  0  0  0  0  0  0  0  0
   -7.7135  -22.3610   15.5072 S   0  0  0  0  0  0  0  0  0  0  0  0
   -7.5581  -21.9877   14.0851 O   0  0  0  0  0  0  0  0  0  0  0  0
   -7.1509  -23.5065   16.0984 O   0  0  0  0  0  0  0  0  0  0  0  0
   -9.3619  -22.8061   15.7245 C   0  0  0  0  0  0  0  0  0  0  0  0
   -9.8021  -23.8332   14.7663 C   0  0  0  0  0  0  0  0  0  0  0  0
  -10.2561  -23.4275   13.5698 C   0  0  0  0  0  0  0  0  0  0  0  0
  -10.3002  -22.0715   13.5175 C   0  0  0  0  0  0  0  0  0  0  0  0
  -10.0797  -21.1848   14.6987 C   0  0  0  0  0  0  0  0  0  0  0  0
   -9.6514  -21.5276   16.0489 C   0  0  0  0  0  0  0  0  0  0  0  0
   -8.8096  -20.6764   17.5990 C   0  0  0  0  0  0  0  0  0  0  0  0
   -9.1395  -20.5159   18.7651 O   0  0  0  0  0  0  0  0  0  0  0  0
   -1.7372  -14.1996   16.5446 H   0  0  0  0  0  0  0  0  0  0  0  0
    1.2792  -13.9995   17.2596 H   0  0  0  0  0  0  0  0  0  0  0  0
    1.6287  -14.9138   16.1257 H   0  0  0  0  0  0  0  0  0  0  0  0
    2.6391  -11.7238   16.4587 H   0  0  0  0  0  0  0  0  0  0  0  0
    5.8388  -11.0867   13.6904 H   0  0  0  0  0  0  0  0  0  0  0  0
    8.5997  -10.2128   15.0576 H   0  0  0  0  0  0  0  0  0  0  0  0
    8.5945  -10.8887   18.0086 H   0  0  0  0  0  0  0  0  0  0  0  0
    4.6673  -10.2954   12.6139 H   0  0  0  0  0  0  0  0  0  0  0  0
    2.9728  -10.4132   11.6598 H   0  0  0  0  0  0  0  0  0  0  0  0
    4.0887   -7.7658   10.8664 H   0  0  0  0  0  0  0  0  0  0  0  0
    2.7376   -7.4863   11.5771 H   0  0  0  0  0  0  0  0  0  0  0  0
    4.1400   -6.4923   13.5983 H   0  0  0  0  0  0  0  0  0  0  0  0
    5.4276   -7.1828   13.0639 H   0  0  0  0  0  0  0  0  0  0  0  0
    3.3787   -8.1388   14.5938 H   0  0  0  0  0  0  0  0  0  0  0  0
    5.0356   -9.0500   14.1535 H   0  0  0  0  0  0  0  0  0  0  0  0
   -4.8328  -16.9491   19.2023 H   0  0  0  0  0  0  0  0  0  0  0  0
   -6.9654  -18.3808   19.5597 H   0  0  0  0  0  0  0  0  0  0  0  0
   -4.3703  -19.8920   18.3872 H   0  0  0  0  0  0  0  0  0  0  0  0
   -9.5592  -24.8784   14.9276 H   0  0  0  0  0  0  0  0  0  0  0  0
  -10.4489  -24.0790   12.7323 H   0  0  0  0  0  0  0  0  0  0  0  0
  -10.4557  -21.6355   12.5656 H   0  0  0  0  0  0  0  0  0  0  0  0
  -10.3705  -20.1610   14.4545 H   0  0  0  0  0  0  0  0  0  0  0  0
  1  2  2  0
  2  3  1  0
  3  4  1  0
  4  5  1  0
  5  6  1  0
  6  7  2  0
  7  8  1  0
  8  9  2  0
  9 10  1  0
  5 11  1  0
 11 12  1  0
 12 13  1  0
 13 14  1  0
 14 15  1  0
  2 16  1  0
 16 17  2  0
 17 18  1  0
 18 19  2  0
 19 20  1  0
 20 21  2  0
 20 22  1  0
 22 23  2  0
 22 24  2  0
 22 25  1  0
 25 26  2  0
 26 27  1  0
 27 28  2  0
 28 29  1  0
 29 30  2  0
 30 31  1  0
 31 32  2  0
 10  6  1  0
 15 11  1  0
 21 16  1  0
 30 25  1  0
 31 19  1  0
  3 33  1  0
  4 34  1  0
  4 35  1  0
  5 36  1  0
  7 37  1  0
  8 38  1  0
  9 39  1  0
 12 40  1  0
 12 41  1  0
 13 42  1  0
 13 43  1  0
 14 44  1  0
 14 45  1  0
 15 46  1  0
 15 47  1  0
 17 48  1  0
 18 49  1  0
 21 50  1  0
 26 51  1  0
 27 52  1  0
 28 53  1  0
 29 54  1  0
M  END
>  <Energy>  (1067) 
3606.3872194162063

>  <compound_id>  (1067) 
6340

>  <target_id>  (1067) 
1

>  <reference_id>  (1067) 
30

>  <inspiration_ids>  (1067) 
[30, 76]

>  <energy_score>  (1067) 
3450.69367497445

>  <distance_score>  (1067) 
12.177228056860555

>  <path>  (1067) 
/opt/xchem-fragalysis-2/maxwin/BulkDock/SCRATCH/511018/C6340-P30/C6340-P30.minimised.mol

>  <scratch_subdir>  (1067) 
/opt/xchem-fragalysis-2/maxwin/BulkDock/SCRATCH/511018/C6340-P30

>  <fragmenstein_runtime>  (1067) 
37.44479966163635

>  <fragmenstein_outcome>  (1067) 
too moved

>  <fragmenstein_mode>  (1067) 
expansion

>  <fragmenstein_error>  (1067) 


$$$$
C6340-P76
     RDKit          3D

 54 58  0  0  0  0  0  0  0  0999 V2000
   -4.8592  -16.3007   14.6094 O   0  0  0  0  0  0  0  0  0  0  0  0
   -5.7702  -15.8598   13.9773 C   0  0  0  0  0  0  0  0  0  0  0  0
   -6.1784  -14.0737   14.0532 N   0  0  0  0  0  0  0  0  0  0  0  0
   -5.4888  -12.6926   15.0864 C   0  0  0  0  0  0  0  0  0  0  0  0
   -4.7968  -10.8036   14.9545 C   0  0  0  0  0  0  0  0  0  0  0  0
   -5.7326   -9.7895   15.6389 C   0  0  0  0  0  0  0  0  0  0  0  0
   -6.1972   -9.7692   16.9387 C   0  0  0  0  0  0  0  0  0  0  0  0
   -6.4544   -8.4338   17.3921 C   0  0  0  0  0  0  0  0  0  0  0  0
   -6.2778   -7.4940   16.4024 C   0  0  0  0  0  0  0  0  0  0  0  0
   -5.8969   -8.2213   14.9093 S   0  0  0  0  0  0  0  0  0  0  0  0
   -3.2729   -9.9823   15.5396 N   0  0  0  0  0  0  0  0  0  0  0  0
   -1.6073   -9.6507   14.7924 C   0  0  0  0  0  0  0  0  0  0  0  0
   -0.5074   -8.8233   16.2917 C   0  0  0  0  0  0  0  0  0  0  0  0
   -1.7151   -9.1683   17.6082 C   0  0  0  0  0  0  0  0  0  0  0  0
   -3.1911   -9.5661   17.0462 C   0  0  0  0  0  0  0  0  0  0  0  0
   -6.7555  -17.3615   13.0647 C   0  0  0  0  0  0  0  0  0  0  0  0
   -8.2548  -17.3828   13.1543 C   0  0  0  0  0  0  0  0  0  0  0  0
   -9.5087  -18.3161   12.5027 C   0  0  0  0  0  0  0  0  0  0  0  0
   -9.3327  -19.7564   11.9269 C   0  0  0  0  0  0  0  0  0  0  0  0
   -7.9190  -20.1004   11.7536 C   0  0  0  0  0  0  0  0  0  0  0  0
   -6.6003  -18.9253   12.2302 C   0  0  0  0  0  0  0  0  0  0  0  0
   -8.1958  -22.1305   11.6131 S   0  0  0  0  0  0  0  0  0  0  0  0
   -8.8548  -22.2387   10.3089 O   0  0  0  0  0  0  0  0  0  0  0  0
   -7.1097  -22.9528   12.1156 O   0  0  0  0  0  0  0  0  0  0  0  0
   -9.3782  -23.0463   12.4156 C   0  0  0  0  0  0  0  0  0  0  0  0
   -9.2827  -24.4782   12.3576 C   0  0  0  0  0  0  0  0  0  0  0  0
  -10.3660  -25.2977   12.5745 C   0  0  0  0  0  0  0  0  0  0  0  0
  -11.5666  -24.6681   12.7215 C   0  0  0  0  0  0  0  0  0  0  0  0
  -11.6087  -23.2574   12.6937 C   0  0  0  0  0  0  0  0  0  0  0  0
  -10.5001  -22.3758   12.5892 C   0  0  0  0  0  0  0  0  0  0  0  0
  -10.3473  -20.8576   12.6125 C   0  0  0  0  0  0  0  0  0  0  0  0
  -11.0450  -20.2852   13.4232 O   0  0  0  0  0  0  0  0  0  0  0  0
   -7.0086  -13.9116   13.5316 H   0  0  0  0  0  0  0  0  0  0  0  0
   -4.9806  -13.2308   15.9013 H   0  0  0  0  0  0  0  0  0  0  0  0
   -6.4618  -12.4318   15.5306 H   0  0  0  0  0  0  0  0  0  0  0  0
   -4.9276  -10.5870   13.8907 H   0  0  0  0  0  0  0  0  0  0  0  0
   -6.1842  -10.6318   17.5938 H   0  0  0  0  0  0  0  0  0  0  0  0
   -6.7382   -8.1813   18.4064 H   0  0  0  0  0  0  0  0  0  0  0  0
   -6.4123   -6.4239   16.4729 H   0  0  0  0  0  0  0  0  0  0  0  0
   -1.2684  -10.4358   14.1537 H   0  0  0  0  0  0  0  0  0  0  0  0
   -1.5797   -8.9020   14.0493 H   0  0  0  0  0  0  0  0  0  0  0  0
   -0.3093   -7.8198   15.9269 H   0  0  0  0  0  0  0  0  0  0  0  0
    0.5236   -8.7619   16.6808 H   0  0  0  0  0  0  0  0  0  0  0  0
   -1.4816  -10.0765   18.1544 H   0  0  0  0  0  0  0  0  0  0  0  0
   -1.7380   -8.3705   18.3538 H   0  0  0  0  0  0  0  0  0  0  0  0
   -3.5692  -10.3975   17.6519 H   0  0  0  0  0  0  0  0  0  0  0  0
   -3.8114   -8.6881   17.2239 H   0  0  0  0  0  0  0  0  0  0  0  0
   -8.7489  -16.5763   13.6163 H   0  0  0  0  0  0  0  0  0  0  0  0
  -10.4566  -17.9960   12.9481 H   0  0  0  0  0  0  0  0  0  0  0  0
   -5.6585  -19.4604   12.3888 H   0  0  0  0  0  0  0  0  0  0  0  0
   -8.3478  -24.9500   12.0546 H   0  0  0  0  0  0  0  0  0  0  0  0
  -10.2802  -26.3776   12.5370 H   0  0  0  0  0  0  0  0  0  0  0  0
  -12.4854  -25.2400   12.8199 H   0  0  0  0  0  0  0  0  0  0  0  0
  -12.6296  -22.9142   12.7238 H   0  0  0  0  0  0  0  0  0  0  0  0
  1  2  2  0
  2  3  1  0
  3  4  1  0
  4  5  1  0
  5  6  1  0
  6  7  2  0
  7  8  1  0
  8  9  2  0
  9 10  1  0
  5 11  1  0
 11 12  1  0
 12 13  1  0
 13 14  1  0
 14 15  1  0
  2 16  1  0
 16 17  2  0
 17 18  1  0
 18 19  2  0
 19 20  1  0
 20 21  2  0
 20 22  1  0
 22 23  2  0
 22 24  2  0
 22 25  1  0
 25 26  2  0
 26 27  1  0
 27 28  2  0
 28 29  1  0
 29 30  2  0
 30 31  1  0
 31 32  2  0
 10  6  1  0
 15 11  1  0
 21 16  1  0
 30 25  1  0
 31 19  1  0
  3 33  1  0
  4 34  1  0
  4 35  1  0
  5 36  1  0
  7 37  1  0
  8 38  1  0
  9 39  1  0
 12 40  1  0
 12 41  1  0
 13 42  1  0
 13 43  1  0
 14 44  1  0
 14 45  1  0
 15 46  1  0
 15 47  1  0
 17 48  1  0
 18 49  1  0
 21 50  1  0
 26 51  1  0
 27 52  1  0
 28 53  1  0
 29 54  1  0
M  END
>  <Energy>  (1068) 
885.03408974928084

>  <compound_id>  (1068) 
6340

>  <target_id>  (1068) 
1

>  <reference_id>  (1068) 
76

>  <inspiration_ids>  (1068) 
[30, 76]

>  <energy_score>  (1068) 
729.3405453074985

>  <distance_score>  (1068) 
16.369910309784238

>  <path>  (1068) 
/opt/xchem-fragalysis-2/maxwin/BulkDock/SCRATCH/511018/C6340-P76/C6340-P76.minimised.mol

>  <scratch_subdir>  (1068) 
/opt/xchem-fragalysis-2/maxwin/BulkDock/SCRATCH/511018/C6340-P76

>  <fragmenstein_runtime>  (1068) 
44.52697515487671

>  <fragmenstein_outcome>  (1068) 
too moved

>  <fragmenstein_mode>  (1068) 
expansion

>  <fragmenstein_error>  (1068) 


$$$$
C6341-P30
     RDKit          3D

 46 50  0  0  0  0  0  0  0  0999 V2000
    4.2352  -12.3415   10.2601 O   0  0  0  0  0  0  0  0  0  0  0  0
    3.0613  -12.0531    9.9818 C   0  0  0  0  0  0  0  0  0  0  0  0
    3.1834  -11.1042    8.8288 C   0  0  0  0  0  0  0  0  0  0  0  0
    4.3313  -11.0680    8.0019 C   0  0  0  0  0  0  0  0  0  0  0  0
    4.7009   -9.9064    7.3014 C   0  0  0  0  0  0  0  0  0  0  0  0
    3.9124   -8.7664    7.3886 C   0  0  0  0  0  0  0  0  0  0  0  0
    2.7737   -8.7984    8.1920 C   0  0  0  0  0  0  0  0  0  0  0  0
    2.4445   -9.9671    8.9287 C   0  0  0  0  0  0  0  0  0  0  0  0
    1.8965   -9.7637   10.5896 S   0  0  0  0  0  0  0  0  0  0  0  0
    1.2410   -8.4987   10.4371 O   0  0  0  0  0  0  0  0  0  0  0  0
    3.2415   -9.8166   11.1551 O   0  0  0  0  0  0  0  0  0  0  0  0
    0.8011  -11.3861   11.4920 C   0  0  0  0  0  0  0  0  0  0  0  0
   -0.2664  -11.9462   12.7291 C   0  0  0  0  0  0  0  0  0  0  0  0
   -0.7220  -13.4074   13.5675 C   0  0  0  0  0  0  0  0  0  0  0  0
   -1.2588  -13.9985   15.5278 C   0  0  0  0  0  0  0  0  0  0  0  0
   -0.3850  -14.0961   16.3765 O   0  0  0  0  0  0  0  0  0  0  0  0
   -3.0267  -14.2636   16.1979 N   0  0  0  0  0  0  0  0  0  0  0  0
   -3.5508  -16.0069   16.1073 C   0  0  0  0  0  0  0  0  0  0  0  0
   -3.6673  -16.7882   17.4435 C   0  0  0  0  0  0  0  0  0  0  0  0
   -4.4325  -15.7687   18.1567 C   0  0  0  0  0  0  0  0  0  0  0  0
   -3.6239  -14.4882   17.7591 C   0  0  0  0  0  0  0  0  0  0  0  0
   -3.1647  -13.7415   18.9654 C   0  0  0  0  0  0  0  0  0  0  0  0
   -3.0136  -14.2540   20.2475 C   0  0  0  0  0  0  0  0  0  0  0  0
   -2.9652  -13.2419   21.2487 C   0  0  0  0  0  0  0  0  0  0  0  0
   -3.0683  -11.9889   20.7000 C   0  0  0  0  0  0  0  0  0  0  0  0
   -3.1948  -12.0266   19.0054 S   0  0  0  0  0  0  0  0  0  0  0  0
   -0.0800  -14.1138   12.5508 C   0  0  0  0  0  0  0  0  0  0  0  0
    0.9425  -13.6936   11.5991 C   0  0  0  0  0  0  0  0  0  0  0  0
    1.5186  -12.4067   11.0152 C   0  0  0  0  0  0  0  0  0  0  0  0
    5.0090  -11.9213    7.9905 H   0  0  0  0  0  0  0  0  0  0  0  0
    5.6166   -9.8973    6.7154 H   0  0  0  0  0  0  0  0  0  0  0  0
    4.2030   -7.8527    6.8779 H   0  0  0  0  0  0  0  0  0  0  0  0
    2.2403   -7.8654    8.3692 H   0  0  0  0  0  0  0  0  0  0  0  0
   -0.8871  -11.0908   13.0256 H   0  0  0  0  0  0  0  0  0  0  0  0
   -4.5830  -16.1301   15.8126 H   0  0  0  0  0  0  0  0  0  0  0  0
   -3.1792  -16.4519   15.1747 H   0  0  0  0  0  0  0  0  0  0  0  0
   -2.7965  -17.0290   18.0480 H   0  0  0  0  0  0  0  0  0  0  0  0
   -4.1454  -17.7579   17.3516 H   0  0  0  0  0  0  0  0  0  0  0  0
   -5.4756  -15.7097   17.8203 H   0  0  0  0  0  0  0  0  0  0  0  0
   -4.5033  -15.9914   19.2230 H   0  0  0  0  0  0  0  0  0  0  0  0
   -4.5271  -13.8693   17.6441 H   0  0  0  0  0  0  0  0  0  0  0  0
   -2.9690  -15.3103   20.4832 H   0  0  0  0  0  0  0  0  0  0  0  0
   -2.8663  -13.4265   22.3110 H   0  0  0  0  0  0  0  0  0  0  0  0
   -3.0586  -11.0391   21.2173 H   0  0  0  0  0  0  0  0  0  0  0  0
   -0.2405  -15.1451   12.3127 H   0  0  0  0  0  0  0  0  0  0  0  0
    1.3172  -14.6629   11.2579 H   0  0  0  0  0  0  0  0  0  0  0  0
  1  2  2  0
  2  3  1  0
  3  4  2  0
  4  5  1  0
  5  6  2  0
  6  7  1  0
  7  8  2  0
  8  9  1  0
  9 10  2  0
  9 11  2  0
  9 12  1  0
 12 13  2  0
 13 14  1  0
 14 15  1  0
 15 16  2  0
 15 17  1  0
 17 18  1  0
 18 19  1  0
 19 20  1  0
 20 21  1  0
 21 22  1  0
 22 23  2  0
 23 24  1  0
 24 25  2  0
 25 26  1  0
 14 27  2  0
 27 28  1  0
 28 29  2  0
 29  2  1  0
  8  3  1  0
 29 12  1  0
 21 17  1  0
 26 22  1  0
  4 30  1  0
  5 31  1  0
  6 32  1  0
  7 33  1  0
 13 34  1  0
 18 35  1  0
 18 36  1  0
 19 37  1  0
 19 38  1  0
 20 39  1  0
 20 40  1  0
 21 41  1  0
 23 42  1  0
 24 43  1  0
 25 44  1  0
 27 45  1  0
 28 46  1  0
M  END
>  <Energy>  (1069) 
750.9902581407506

>  <compound_id>  (1069) 
6341

>  <target_id>  (1069) 
1

>  <reference_id>  (1069) 
30

>  <inspiration_ids>  (1069) 
[30, 76]

>  <energy_score>  (1069) 
589.4752485618975

>  <distance_score>  (1069) 
15.335356243153432

>  <path>  (1069) 
/opt/xchem-fragalysis-2/maxwin/BulkDock/SCRATCH/511018/C6341-P30/C6341-P30.minimised.mol

>  <scratch_subdir>  (1069) 
/opt/xchem-fragalysis-2/maxwin/BulkDock/SCRATCH/511018/C6341-P30

>  <fragmenstein_runtime>  (1069) 
19.98570728302002

>  <fragmenstein_outcome>  (1069) 
too moved

>  <fragmenstein_mode>  (1069) 
expansion

>  <fragmenstein_error>  (1069) 


$$$$
C6341-P76
     RDKit          3D

 46 50  0  0  0  0  0  0  0  0999 V2000
   11.4494  -14.5938   12.5099 O   0  0  0  0  0  0  0  0  0  0  0  0
   11.3239  -15.0481   13.6455 C   0  0  0  0  0  0  0  0  0  0  0  0
   11.6090  -14.0918   14.7834 C   0  0  0  0  0  0  0  0  0  0  0  0
   11.8277  -12.7160   14.5415 C   0  0  0  0  0  0  0  0  0  0  0  0
   11.9301  -11.8102   15.6069 C   0  0  0  0  0  0  0  0  0  0  0  0
   11.8007  -12.2684   16.9144 C   0  0  0  0  0  0  0  0  0  0  0  0
   11.6607  -13.6305   17.1705 C   0  0  0  0  0  0  0  0  0  0  0  0
   11.5839  -14.5262   16.1032 C   0  0  0  0  0  0  0  0  0  0  0  0
   11.5189  -16.2663   16.3639 S   0  0  0  0  0  0  0  0  0  0  0  0
   11.0001  -16.5502   17.6820 O   0  0  0  0  0  0  0  0  0  0  0  0
   12.8221  -16.7757   15.9788 O   0  0  0  0  0  0  0  0  0  0  0  0
   10.3890  -16.8796   15.1462 C   0  0  0  0  0  0  0  0  0  0  0  0
    9.3761  -17.8799   15.3822 C   0  0  0  0  0  0  0  0  0  0  0  0
    8.6682  -18.5315   14.3195 C   0  0  0  0  0  0  0  0  0  0  0  0
    7.1847  -19.1213   14.5709 C   0  0  0  0  0  0  0  0  0  0  0  0
    6.6805  -18.5787   15.5263 O   0  0  0  0  0  0  0  0  0  0  0  0
    6.6225  -20.0928   13.6248 N   0  0  0  0  0  0  0  0  0  0  0  0
    6.0053  -19.3893   12.4516 C   0  0  0  0  0  0  0  0  0  0  0  0
    4.6543  -18.7586   12.7383 C   0  0  0  0  0  0  0  0  0  0  0  0
    4.0023  -19.8639   13.4615 C   0  0  0  0  0  0  0  0  0  0  0  0
    5.1819  -20.8514   13.6096 C   0  0  0  0  0  0  0  0  0  0  0  0
    4.7783  -21.7700   14.7536 C   0  0  0  0  0  0  0  0  0  0  0  0
    5.2583  -21.9167   16.0328 C   0  0  0  0  0  0  0  0  0  0  0  0
    4.4383  -22.7604   16.8446 C   0  0  0  0  0  0  0  0  0  0  0  0
    3.3479  -23.2546   16.1624 C   0  0  0  0  0  0  0  0  0  0  0  0
    3.3559  -22.7706   14.5295 S   0  0  0  0  0  0  0  0  0  0  0  0
    9.2163  -18.2901   13.0483 C   0  0  0  0  0  0  0  0  0  0  0  0
   10.1844  -17.2345   12.8263 C   0  0  0  0  0  0  0  0  0  0  0  0
   10.6781  -16.4231   13.8718 C   0  0  0  0  0  0  0  0  0  0  0  0
   11.8916  -12.3435   13.5205 H   0  0  0  0  0  0  0  0  0  0  0  0
   12.1063  -10.7549   15.4302 H   0  0  0  0  0  0  0  0  0  0  0  0
   11.8194  -11.5886   17.7529 H   0  0  0  0  0  0  0  0  0  0  0  0
   11.6169  -13.9885   18.1973 H   0  0  0  0  0  0  0  0  0  0  0  0
    9.1074  -18.1255   16.4069 H   0  0  0  0  0  0  0  0  0  0  0  0
    6.7015  -18.6309   12.1183 H   0  0  0  0  0  0  0  0  0  0  0  0
    5.9709  -20.0692   11.5832 H   0  0  0  0  0  0  0  0  0  0  0  0
    4.1302  -18.4574   11.8274 H   0  0  0  0  0  0  0  0  0  0  0  0
    4.7426  -17.8906   13.3980 H   0  0  0  0  0  0  0  0  0  0  0  0
    3.6140  -19.5180   14.4267 H   0  0  0  0  0  0  0  0  0  0  0  0
    3.1714  -20.2936   12.8914 H   0  0  0  0  0  0  0  0  0  0  0  0
    5.2386  -21.5318   12.7396 H   0  0  0  0  0  0  0  0  0  0  0  0
    6.1402  -21.4012   16.3912 H   0  0  0  0  0  0  0  0  0  0  0  0
    4.6259  -22.9699   17.8906 H   0  0  0  0  0  0  0  0  0  0  0  0
    2.5653  -23.8982   16.5395 H   0  0  0  0  0  0  0  0  0  0  0  0
    8.8160  -18.7963   12.1741 H   0  0  0  0  0  0  0  0  0  0  0  0
   10.4482  -16.9846   11.7970 H   0  0  0  0  0  0  0  0  0  0  0  0
  1  2  2  0
  2  3  1  0
  3  4  2  0
  4  5  1  0
  5  6  2  0
  6  7  1  0
  7  8  2  0
  8  9  1  0
  9 10  2  0
  9 11  2  0
  9 12  1  0
 12 13  2  0
 13 14  1  0
 14 15  1  0
 15 16  2  0
 15 17  1  0
 17 18  1  0
 18 19  1  0
 19 20  1  0
 20 21  1  0
 21 22  1  0
 22 23  2  0
 23 24  1  0
 24 25  2  0
 25 26  1  0
 14 27  2  0
 27 28  1  0
 28 29  2  0
 29  2  1  0
  8  3  1  0
 29 12  1  0
 21 17  1  0
 26 22  1  0
  4 30  1  0
  5 31  1  0
  6 32  1  0
  7 33  1  0
 13 34  1  0
 18 35  1  0
 18 36  1  0
 19 37  1  0
 19 38  1  0
 20 39  1  0
 20 40  1  0
 21 41  1  0
 23 42  1  0
 24 43  1  0
 25 44  1  0
 27 45  1  0
 28 46  1  0
M  END
>  <Energy>  (1070) 
176.58255511646342

>  <compound_id>  (1070) 
6341

>  <target_id>  (1070) 
1

>  <reference_id>  (1070) 
76

>  <inspiration_ids>  (1070) 
[30, 76]

>  <energy_score>  (1070) 
15.06754553759717

>  <distance_score>  (1070) 
16.159946790305355

>  <path>  (1070) 
/opt/xchem-fragalysis-2/maxwin/BulkDock/SCRATCH/511018/C6341-P76/C6341-P76.minimised.mol

>  <scratch_subdir>  (1070) 
/opt/xchem-fragalysis-2/maxwin/BulkDock/SCRATCH/511018/C6341-P76

>  <fragmenstein_runtime>  (1070) 
56.74793100357056

>  <fragmenstein_outcome>  (1070) 
too moved

>  <fragmenstein_mode>  (1070) 
expansion

>  <fragmenstein_error>  (1070) 


$$$$
C6342-P30
     RDKit          3D

 45 48  0  0  0  0  0  0  0  0999 V2000
    0.2328   -3.3045   16.8963 O   0  0  0  0  0  0  0  0  0  0  0  0
    0.2770   -3.1958   15.7257 C   0  0  0  0  0  0  0  0  0  0  0  0
    1.3490   -2.6107   14.8454 N   0  0  0  0  0  0  0  0  0  0  0  0
    2.7158   -2.0856   15.1853 C   0  0  0  0  0  0  0  0  0  0  0  0
    3.7011   -1.3660   14.1255 C   0  0  0  0  0  0  0  0  0  0  0  0
    3.8942   -2.1815   12.8450 C   0  0  0  0  0  0  0  0  0  0  0  0
    4.3114   -1.7168   11.6041 C   0  0  0  0  0  0  0  0  0  0  0  0
    4.5050   -2.7578   10.6537 C   0  0  0  0  0  0  0  0  0  0  0  0
    4.1454   -3.9818   11.1636 C   0  0  0  0  0  0  0  0  0  0  0  0
    3.5691   -3.8553   12.7609 S   0  0  0  0  0  0  0  0  0  0  0  0
    5.0377   -0.9957   14.7232 N   0  0  0  0  0  0  0  0  0  0  0  0
    4.9693    0.0737   15.7312 C   0  0  0  0  0  0  0  0  0  0  0  0
    6.3853    0.6597   15.8253 C   0  0  0  0  0  0  0  0  0  0  0  0
    7.1676   -0.0044   14.7096 C   0  0  0  0  0  0  0  0  0  0  0  0
    6.0782   -0.5341   13.7916 C   0  0  0  0  0  0  0  0  0  0  0  0
   -0.7320   -3.6273   14.6869 N   0  0  0  0  0  0  0  0  0  0  0  0
   -0.4323   -5.0392   14.2173 C   0  0  0  0  0  0  0  0  0  0  0  0
   -1.6263   -5.9816   13.8950 C   0  0  0  0  0  0  0  0  0  0  0  0
   -2.6249   -4.9324   13.5872 C   0  0  0  0  0  0  0  0  0  0  0  0
   -2.1614   -4.2292   14.8517 C   0  0  0  0  0  0  0  0  0  0  0  0
   -2.3458   -5.3814   15.9105 C   0  0  0  0  0  0  0  0  0  0  0  0
   -2.0555   -6.5723   15.1369 O   0  0  0  0  0  0  0  0  0  0  0  0
    1.0990   -2.7529   13.8759 H   0  0  0  0  0  0  0  0  0  0  0  0
    3.2490   -2.9401   15.6181 H   0  0  0  0  0  0  0  0  0  0  0  0
    2.5455   -1.3949   16.0198 H   0  0  0  0  0  0  0  0  0  0  0  0
    3.1917   -0.4421   13.8146 H   0  0  0  0  0  0  0  0  0  0  0  0
    4.5213   -0.6743   11.3981 H   0  0  0  0  0  0  0  0  0  0  0  0
    4.8742   -2.6127    9.6459 H   0  0  0  0  0  0  0  0  0  0  0  0
    4.1757   -4.9422   10.6668 H   0  0  0  0  0  0  0  0  0  0  0  0
    4.6420   -0.3133   16.7013 H   0  0  0  0  0  0  0  0  0  0  0  0
    4.2743    0.8667   15.4283 H   0  0  0  0  0  0  0  0  0  0  0  0
    6.8448    0.4689   16.7995 H   0  0  0  0  0  0  0  0  0  0  0  0
    6.3513    1.7452   15.6782 H   0  0  0  0  0  0  0  0  0  0  0  0
    7.7657   -0.8319   15.1103 H   0  0  0  0  0  0  0  0  0  0  0  0
    7.8429    0.6906   14.2020 H   0  0  0  0  0  0  0  0  0  0  0  0
    5.7140    0.2793   13.1523 H   0  0  0  0  0  0  0  0  0  0  0  0
    6.4880   -1.3368   13.1754 H   0  0  0  0  0  0  0  0  0  0  0  0
    0.2315   -5.4972   14.9604 H   0  0  0  0  0  0  0  0  0  0  0  0
    0.1381   -4.8632   13.2961 H   0  0  0  0  0  0  0  0  0  0  0  0
   -1.4474   -6.7457   13.1373 H   0  0  0  0  0  0  0  0  0  0  0  0
   -2.4298   -4.3652   12.6730 H   0  0  0  0  0  0  0  0  0  0  0  0
   -3.6646   -5.2680   13.6369 H   0  0  0  0  0  0  0  0  0  0  0  0
   -2.7894   -3.3751   15.1269 H   0  0  0  0  0  0  0  0  0  0  0  0
   -3.3820   -5.4501   16.2551 H   0  0  0  0  0  0  0  0  0  0  0  0
   -1.6647   -5.3088   16.7624 H   0  0  0  0  0  0  0  0  0  0  0  0
  1  2  2  0
  2  3  1  0
  3  4  1  0
  4  5  1  0
  5  6  1  0
  6  7  2  0
  7  8  1  0
  8  9  2  0
  9 10  1  0
  5 11  1  0
 11 12  1  0
 12 13  1  0
 13 14  1  0
 14 15  1  0
  2 16  1  0
 16 17  1  0
 17 18  1  0
 18 19  1  0
 19 20  1  0
 20 21  1  0
 21 22  1  0
 10  6  1  0
 15 11  1  0
 20 16  1  0
 22 18  1  0
  3 23  1  0
  4 24  1  0
  4 25  1  0
  5 26  1  0
  7 27  1  0
  8 28  1  0
  9 29  1  0
 12 30  1  0
 12 31  1  0
 13 32  1  0
 13 33  1  0
 14 34  1  0
 14 35  1  0
 15 36  1  0
 15 37  1  0
 17 38  1  0
 17 39  1  0
 18 40  1  0
 19 41  1  0
 19 42  1  0
 20 43  1  0
 21 44  1  0
 21 45  1  0
M  END
>  <Energy>  (1071) 
95.809124841461141

>  <compound_id>  (1071) 
6342

>  <target_id>  (1071) 
1

>  <reference_id>  (1071) 
30

>  <inspiration_ids>  (1071) 
[30, 76]

>  <energy_score>  (1071) 
30.24067536462053

>  <distance_score>  (1071) 
17.92570892372368

>  <path>  (1071) 
/opt/xchem-fragalysis-2/maxwin/BulkDock/SCRATCH/511018/C6342-P30/C6342-P30.minimised.mol

>  <scratch_subdir>  (1071) 
/opt/xchem-fragalysis-2/maxwin/BulkDock/SCRATCH/511018/C6342-P30

>  <fragmenstein_runtime>  (1071) 
16.772539138793945

>  <fragmenstein_outcome>  (1071) 
too moved

>  <fragmenstein_mode>  (1071) 
expansion

>  <fragmenstein_error>  (1071) 


$$$$
C6342-P76
     RDKit          3D

 45 48  0  0  0  0  0  0  0  0999 V2000
    2.0823   -7.4393    7.1768 O   0  0  0  0  0  0  0  0  0  0  0  0
    2.8729   -8.0261    7.8235 C   0  0  0  0  0  0  0  0  0  0  0  0
    4.3476   -7.8353    7.9491 N   0  0  0  0  0  0  0  0  0  0  0  0
    5.2795   -6.9143    7.2231 C   0  0  0  0  0  0  0  0  0  0  0  0
    6.4226   -6.1253    8.0490 C   0  0  0  0  0  0  0  0  0  0  0  0
    5.9766   -4.6891    8.4344 C   0  0  0  0  0  0  0  0  0  0  0  0
    4.7080   -4.2817    8.8284 C   0  0  0  0  0  0  0  0  0  0  0  0
    4.6739   -2.9538    9.3597 C   0  0  0  0  0  0  0  0  0  0  0  0
    5.9042   -2.3461    9.3171 C   0  0  0  0  0  0  0  0  0  0  0  0
    7.0611   -3.3478    8.5840 S   0  0  0  0  0  0  0  0  0  0  0  0
    7.7439   -6.2232    7.3754 N   0  0  0  0  0  0  0  0  0  0  0  0
    8.9276   -6.1299    8.2311 C   0  0  0  0  0  0  0  0  0  0  0  0
   10.0595   -5.7108    7.3107 C   0  0  0  0  0  0  0  0  0  0  0  0
    9.3620   -4.8327    6.2918 C   0  0  0  0  0  0  0  0  0  0  0  0
    7.9685   -5.4580    6.1505 C   0  0  0  0  0  0  0  0  0  0  0  0
    2.6738   -9.1189    8.8363 N   0  0  0  0  0  0  0  0  0  0  0  0
    2.7432  -10.5150    8.1443 C   0  0  0  0  0  0  0  0  0  0  0  0
    1.7913  -11.6101    8.6989 C   0  0  0  0  0  0  0  0  0  0  0  0
    1.6303  -11.0687   10.0676 C   0  0  0  0  0  0  0  0  0  0  0  0
    1.3738   -9.7212    9.4193 C   0  0  0  0  0  0  0  0  0  0  0  0
    0.2035  -10.0641    8.4479 C   0  0  0  0  0  0  0  0  0  0  0  0
    0.5015  -11.4302    8.0812 O   0  0  0  0  0  0  0  0  0  0  0  0
    4.7284   -8.5669    8.5277 H   0  0  0  0  0  0  0  0  0  0  0  0
    5.7751   -7.5799    6.5057 H   0  0  0  0  0  0  0  0  0  0  0  0
    4.6712   -6.2172    6.6360 H   0  0  0  0  0  0  0  0  0  0  0  0
    6.5065   -6.6923    8.9834 H   0  0  0  0  0  0  0  0  0  0  0  0
    3.8447   -4.9389    8.8108 H   0  0  0  0  0  0  0  0  0  0  0  0
    3.7860   -2.4783    9.7576 H   0  0  0  0  0  0  0  0  0  0  0  0
    6.1685   -1.3504    9.6483 H   0  0  0  0  0  0  0  0  0  0  0  0
    8.8096   -5.3708    8.9959 H   0  0  0  0  0  0  0  0  0  0  0  0
    9.1376   -7.0904    8.7107 H   0  0  0  0  0  0  0  0  0  0  0  0
   10.8635   -5.1881    7.8354 H   0  0  0  0  0  0  0  0  0  0  0  0
   10.4872   -6.5898    6.8136 H   0  0  0  0  0  0  0  0  0  0  0  0
    9.8986   -4.8058    5.3385 H   0  0  0  0  0  0  0  0  0  0  0  0
    9.2918   -3.8064    6.6665 H   0  0  0  0  0  0  0  0  0  0  0  0
    7.2140   -4.6955    5.9341 H   0  0  0  0  0  0  0  0  0  0  0  0
    7.9660   -6.1560    5.3052 H   0  0  0  0  0  0  0  0  0  0  0  0
    3.7839  -10.8312    8.2945 H   0  0  0  0  0  0  0  0  0  0  0  0
    2.6009  -10.3766    7.0633 H   0  0  0  0  0  0  0  0  0  0  0  0
    2.1418  -12.6378    8.5919 H   0  0  0  0  0  0  0  0  0  0  0  0
    2.5388  -11.1017   10.6723 H   0  0  0  0  0  0  0  0  0  0  0  0
    0.7665  -11.4603   10.6122 H   0  0  0  0  0  0  0  0  0  0  0  0
    1.0292   -8.9646   10.1318 H   0  0  0  0  0  0  0  0  0  0  0  0
    0.1689   -9.4317    7.5569 H   0  0  0  0  0  0  0  0  0  0  0  0
   -0.7650  -10.0572    8.9569 H   0  0  0  0  0  0  0  0  0  0  0  0
  1  2  2  0
  2  3  1  0
  3  4  1  0
  4  5  1  0
  5  6  1  0
  6  7  2  0
  7  8  1  0
  8  9  2  0
  9 10  1  0
  5 11  1  0
 11 12  1  0
 12 13  1  0
 13 14  1  0
 14 15  1  0
  2 16  1  0
 16 17  1  0
 17 18  1  0
 18 19  1  0
 19 20  1  0
 20 21  1  0
 21 22  1  0
 10  6  1  0
 15 11  1  0
 20 16  1  0
 22 18  1  0
  3 23  1  0
  4 24  1  0
  4 25  1  0
  5 26  1  0
  7 27  1  0
  8 28  1  0
  9 29  1  0
 12 30  1  0
 12 31  1  0
 13 32  1  0
 13 33  1  0
 14 34  1  0
 14 35  1  0
 15 36  1  0
 15 37  1  0
 17 38  1  0
 17 39  1  0
 18 40  1  0
 19 41  1  0
 19 42  1  0
 20 43  1  0
 21 44  1  0
 21 45  1  0
M  END
>  <Energy>  (1072) 
98.104754387528502

>  <compound_id>  (1072) 
6342

>  <target_id>  (1072) 
1

>  <reference_id>  (1072) 
76

>  <inspiration_ids>  (1072) 
[30, 76]

>  <energy_score>  (1072) 
32.53630491069691

>  <distance_score>  (1072) 
17.155021369586667

>  <path>  (1072) 
/opt/xchem-fragalysis-2/maxwin/BulkDock/SCRATCH/511018/C6342-P76/C6342-P76.minimised.mol

>  <scratch_subdir>  (1072) 
/opt/xchem-fragalysis-2/maxwin/BulkDock/SCRATCH/511018/C6342-P76

>  <fragmenstein_runtime>  (1072) 
22.095223903656006

>  <fragmenstein_outcome>  (1072) 
too moved

>  <fragmenstein_mode>  (1072) 
expansion

>  <fragmenstein_error>  (1072) 


$$$$
C6349-P30
     RDKit          3D

 43 44  0  0  0  0  0  0  0  0999 V2000
   10.2099   -5.8590    7.8818 C   0  0  0  0  0  0  0  0  0  0  0  0
    9.3953   -6.8782    7.0961 C   0  0  0  0  0  0  0  0  0  0  0  0
    8.2872   -7.8121    8.1313 S   0  0  0  0  0  0  0  0  0  0  0  0
    7.2534   -6.8817    8.5457 O   0  0  0  0  0  0  0  0  0  0  0  0
    9.1619   -8.4316    9.1143 O   0  0  0  0  0  0  0  0  0  0  0  0
    7.5666   -9.1684    7.0411 C   0  0  0  0  0  0  0  0  0  0  0  0
    6.0084   -9.4357    7.0302 C   0  0  0  0  0  0  0  0  0  0  0  0
    5.5935  -10.9677    6.9679 C   0  0  0  0  0  0  0  0  0  0  0  0
    4.1541  -11.3839    7.0252 N   0  0  0  0  0  0  0  0  0  0  0  0
    3.5121  -12.7475    6.8510 C   0  0  0  0  0  0  0  0  0  0  0  0
    3.9938  -13.7827    6.5526 O   0  0  0  0  0  0  0  0  0  0  0  0
    2.0631  -12.3803    7.0704 N   0  0  0  0  0  0  0  0  0  0  0  0
    1.6853  -12.5748    8.5196 C   0  0  0  0  0  0  0  0  0  0  0  0
    1.3564  -14.0262    8.9043 C   0  0  0  0  0  0  0  0  0  0  0  0
    0.5908  -14.4949    7.7153 C   0  0  0  0  0  0  0  0  0  0  0  0
   -0.7992  -15.0370    8.0866 C   0  0  0  0  0  0  0  0  0  0  0  0
   -1.1405  -16.3634    8.3425 C   0  0  0  0  0  0  0  0  0  0  0  0
   -2.4930  -16.5368    8.7721 C   0  0  0  0  0  0  0  0  0  0  0  0
   -3.1590  -15.3353    8.8248 C   0  0  0  0  0  0  0  0  0  0  0  0
   -2.1546  -14.0198    8.3588 S   0  0  0  0  0  0  0  0  0  0  0  0
    0.7590  -13.2191    6.8588 C   0  0  0  0  0  0  0  0  0  0  0  0
   10.8457   -5.2849    7.2003 H   0  0  0  0  0  0  0  0  0  0  0  0
    9.5556   -5.1553    8.4026 H   0  0  0  0  0  0  0  0  0  0  0  0
   10.8629   -6.3529    8.6061 H   0  0  0  0  0  0  0  0  0  0  0  0
   10.0633   -7.5935    6.6068 H   0  0  0  0  0  0  0  0  0  0  0  0
    8.7885   -6.3812    6.3335 H   0  0  0  0  0  0  0  0  0  0  0  0
    8.1021  -10.0758    7.3411 H   0  0  0  0  0  0  0  0  0  0  0  0
    7.8844   -8.9181    6.0230 H   0  0  0  0  0  0  0  0  0  0  0  0
    5.5909   -8.9478    6.1400 H   0  0  0  0  0  0  0  0  0  0  0  0
    5.5291   -8.9385    7.8651 H   0  0  0  0  0  0  0  0  0  0  0  0
    5.9842  -11.3944    6.0366 H   0  0  0  0  0  0  0  0  0  0  0  0
    6.0904  -11.5090    7.7765 H   0  0  0  0  0  0  0  0  0  0  0  0
    3.4353  -10.6975    7.2047 H   0  0  0  0  0  0  0  0  0  0  0  0
    0.8602  -11.8884    8.7706 H   0  0  0  0  0  0  0  0  0  0  0  0
    2.5319  -12.2305    9.1267 H   0  0  0  0  0  0  0  0  0  0  0  0
    2.2786  -14.6116    8.9889 H   0  0  0  0  0  0  0  0  0  0  0  0
    0.8216  -14.0764    9.8580 H   0  0  0  0  0  0  0  0  0  0  0  0
    1.1422  -15.3115    7.2290 H   0  0  0  0  0  0  0  0  0  0  0  0
   -0.4296  -17.1775    8.2525 H   0  0  0  0  0  0  0  0  0  0  0  0
   -2.9398  -17.4882    9.0325 H   0  0  0  0  0  0  0  0  0  0  0  0
   -4.1852  -15.1551    9.1135 H   0  0  0  0  0  0  0  0  0  0  0  0
   -0.0924  -12.5251    6.9211 H   0  0  0  0  0  0  0  0  0  0  0  0
    0.8037  -13.5249    5.8049 H   0  0  0  0  0  0  0  0  0  0  0  0
  1  2  1  0
  2  3  1  0
  3  4  2  0
  3  5  2  0
  3  6  1  0
  6  7  1  0
  7  8  1  0
  8  9  1  0
  9 10  1  0
 10 11  2  0
 10 12  1  0
 12 13  1  0
 13 14  1  0
 14 15  1  0
 15 16  1  0
 16 17  2  0
 17 18  1  0
 18 19  2  0
 19 20  1  0
 15 21  1  0
 21 12  1  0
 20 16  1  0
  1 22  1  0
  1 23  1  0
  1 24  1  0
  2 25  1  0
  2 26  1  0
  6 27  1  0
  6 28  1  0
  7 29  1  0
  7 30  1  0
  8 31  1  0
  8 32  1  0
  9 33  1  0
 13 34  1  0
 13 35  1  0
 14 36  1  0
 14 37  1  0
 15 38  1  0
 17 39  1  0
 18 40  1  0
 19 41  1  0
 21 42  1  0
 21 43  1  0
M  END
>  <Energy>  (1073) 
24.28744934802771

>  <compound_id>  (1073) 
6349

>  <target_id>  (1073) 
1

>  <reference_id>  (1073) 
30

>  <inspiration_ids>  (1073) 
[30, 76]

>  <energy_score>  (1073) 
37.867704661217715

>  <distance_score>  (1073) 
15.867064647285344

>  <path>  (1073) 
/opt/xchem-fragalysis-2/maxwin/BulkDock/SCRATCH/511018/C6349-P30/C6349-P30.minimised.mol

>  <scratch_subdir>  (1073) 
/opt/xchem-fragalysis-2/maxwin/BulkDock/SCRATCH/511018/C6349-P30

>  <fragmenstein_runtime>  (1073) 
34.4764244556427

>  <fragmenstein_outcome>  (1073) 
too moved

>  <fragmenstein_mode>  (1073) 
expansion

>  <fragmenstein_error>  (1073) 


$$$$
C6349-P76
     RDKit          3D

 43 44  0  0  0  0  0  0  0  0999 V2000
    8.7308  -10.9653   14.8149 C   0  0  0  0  0  0  0  0  0  0  0  0
    6.8042  -10.5647   14.3042 C   0  0  0  0  0  0  0  0  0  0  0  0
    4.6054  -11.4109   14.7931 S   0  0  0  0  0  0  0  0  0  0  0  0
    5.1711  -12.5815   14.1623 O   0  0  0  0  0  0  0  0  0  0  0  0
    4.0381  -10.4554   13.8744 O   0  0  0  0  0  0  0  0  0  0  0  0
    2.6854  -12.0327   16.2871 C   0  0  0  0  0  0  0  0  0  0  0  0
    1.0154  -13.5982   16.6705 C   0  0  0  0  0  0  0  0  0  0  0  0
   -1.2062  -14.2107   16.3455 C   0  0  0  0  0  0  0  0  0  0  0  0
   -2.1689  -15.9808   15.7269 N   0  0  0  0  0  0  0  0  0  0  0  0
   -3.7309  -16.9177   16.3586 C   0  0  0  0  0  0  0  0  0  0  0  0
   -4.4740  -16.4470   17.1749 O   0  0  0  0  0  0  0  0  0  0  0  0
   -3.8641  -18.8168   15.6943 N   0  0  0  0  0  0  0  0  0  0  0  0
   -5.0087  -18.8526   13.9772 C   0  0  0  0  0  0  0  0  0  0  0  0
   -6.2259  -20.0227   12.8187 C   0  0  0  0  0  0  0  0  0  0  0  0
   -6.8278  -20.9848   14.6178 C   0  0  0  0  0  0  0  0  0  0  0  0
   -7.7970  -22.2390   13.5312 C   0  0  0  0  0  0  0  0  0  0  0  0
   -8.2461  -22.2183   12.1864 C   0  0  0  0  0  0  0  0  0  0  0  0
   -9.1482  -23.2409   11.7652 C   0  0  0  0  0  0  0  0  0  0  0  0
   -9.7423  -23.8551   12.8293 C   0  0  0  0  0  0  0  0  0  0  0  0
   -9.3541  -23.0550   14.2824 S   0  0  0  0  0  0  0  0  0  0  0  0
   -5.1930  -20.4781   16.4432 C   0  0  0  0  0  0  0  0  0  0  0  0
    9.1711  -10.2074   15.5055 H   0  0  0  0  0  0  0  0  0  0  0  0
    8.9680  -11.8672   15.4316 H   0  0  0  0  0  0  0  0  0  0  0  0
    9.4583  -11.0299   14.0188 H   0  0  0  0  0  0  0  0  0  0  0  0
    6.8644   -9.6218   13.8245 H   0  0  0  0  0  0  0  0  0  0  0  0
    7.4908  -10.2494   15.3471 H   0  0  0  0  0  0  0  0  0  0  0  0
    2.7496  -11.0186   16.8241 H   0  0  0  0  0  0  0  0  0  0  0  0
    3.4286  -12.0653   17.2472 H   0  0  0  0  0  0  0  0  0  0  0  0
    1.5189  -14.5540   16.6230 H   0  0  0  0  0  0  0  0  0  0  0  0
    0.9240  -13.6928   17.7736 H   0  0  0  0  0  0  0  0  0  0  0  0
   -1.9952  -13.4720   16.4550 H   0  0  0  0  0  0  0  0  0  0  0  0
   -1.6001  -14.2805   17.4064 H   0  0  0  0  0  0  0  0  0  0  0  0
   -1.7548  -16.5001   15.0011 H   0  0  0  0  0  0  0  0  0  0  0  0
   -4.0819  -19.1002   13.3983 H   0  0  0  0  0  0  0  0  0  0  0  0
   -5.0926  -17.8157   13.5487 H   0  0  0  0  0  0  0  0  0  0  0  0
   -5.3082  -20.4619   12.3832 H   0  0  0  0  0  0  0  0  0  0  0  0
   -6.7637  -19.3902   12.1097 H   0  0  0  0  0  0  0  0  0  0  0  0
   -7.3629  -22.0673   14.9121 H   0  0  0  0  0  0  0  0  0  0  0  0
   -8.0105  -21.4065   11.5214 H   0  0  0  0  0  0  0  0  0  0  0  0
   -9.4523  -23.4043   10.7397 H   0  0  0  0  0  0  0  0  0  0  0  0
  -10.5147  -24.6101   12.8150 H   0  0  0  0  0  0  0  0  0  0  0  0
   -4.3908  -21.3298   16.6056 H   0  0  0  0  0  0  0  0  0  0  0  0
   -5.1873  -20.2088   17.5822 H   0  0  0  0  0  0  0  0  0  0  0  0
  1  2  1  0
  2  3  1  0
  3  4  2  0
  3  5  2  0
  3  6  1  0
  6  7  1  0
  7  8  1  0
  8  9  1  0
  9 10  1  0
 10 11  2  0
 10 12  1  0
 12 13  1  0
 13 14  1  0
 14 15  1  0
 15 16  1  0
 16 17  2  0
 17 18  1  0
 18 19  2  0
 19 20  1  0
 15 21  1  0
 21 12  1  0
 20 16  1  0
  1 22  1  0
  1 23  1  0
  1 24  1  0
  2 25  1  0
  2 26  1  0
  6 27  1  0
  6 28  1  0
  7 29  1  0
  7 30  1  0
  8 31  1  0
  8 32  1  0
  9 33  1  0
 13 34  1  0
 13 35  1  0
 14 36  1  0
 14 37  1  0
 15 38  1  0
 17 39  1  0
 18 40  1  0
 19 41  1  0
 21 42  1  0
 21 43  1  0
M  END
>  <Energy>  (1074) 
2424.7656980625848

>  <compound_id>  (1074) 
6349

>  <target_id>  (1074) 
1

>  <reference_id>  (1074) 
76

>  <inspiration_ids>  (1074) 
[30, 76]

>  <energy_score>  (1074) 
2438.345953375762

>  <distance_score>  (1074) 
9.854797933514098

>  <path>  (1074) 
/opt/xchem-fragalysis-2/maxwin/BulkDock/SCRATCH/511018/C6349-P76/C6349-P76.minimised.mol

>  <scratch_subdir>  (1074) 
/opt/xchem-fragalysis-2/maxwin/BulkDock/SCRATCH/511018/C6349-P76

>  <fragmenstein_runtime>  (1074) 
21.501927137374878

>  <fragmenstein_outcome>  (1074) 
too moved

>  <fragmenstein_mode>  (1074) 
expansion

>  <fragmenstein_error>  (1074) 


$$$$
C6351-P30
     RDKit          3D

 39 40  0  0  0  0  0  0  0  0999 V2000
   -6.7600  -20.3977   11.6789 C   0  0  0  0  0  0  0  0  0  0  0  0
   -8.0466  -20.9974   11.8639 O   0  0  0  0  0  0  0  0  0  0  0  0
   -7.9364  -22.2158   12.5898 C   0  0  0  0  0  0  0  0  0  0  0  0
   -9.2558  -23.1606   12.6578 C   0  0  0  0  0  0  0  0  0  0  0  0
   -9.4767  -24.6856   12.8381 C   0  0  0  0  0  0  0  0  0  0  0  0
  -10.0438  -24.7664   14.3403 C   0  0  0  0  0  0  0  0  0  0  0  0
  -10.4038  -23.3333   14.7441 N   0  0  0  0  0  0  0  0  0  0  0  0
   -9.3519  -22.2193   15.6108 S   0  0  0  0  0  0  0  0  0  0  0  0
   -9.9147  -21.1004   14.8895 O   0  0  0  0  0  0  0  0  0  0  0  0
   -8.0576  -22.7052   15.2651 O   0  0  0  0  0  0  0  0  0  0  0  0
   -8.9998  -20.8946   17.3080 N   0  0  0  0  0  0  0  0  0  0  0  0
   -7.6851  -20.7172   18.2748 C   0  0  0  0  0  0  0  0  0  0  0  0
   -6.6315  -21.3561   18.3122 O   0  0  0  0  0  0  0  0  0  0  0  0
   -7.7526  -19.5725   19.3707 C   0  0  0  0  0  0  0  0  0  0  0  0
   -7.3564  -17.8237   18.9995 S   0  0  0  0  0  0  0  0  0  0  0  0
   -5.6203  -17.2713   19.2408 C   0  0  0  0  0  0  0  0  0  0  0  0
   -4.4259  -17.9716   19.2997 C   0  0  0  0  0  0  0  0  0  0  0  0
   -3.2531  -17.1254   19.3660 C   0  0  0  0  0  0  0  0  0  0  0  0
   -3.5656  -15.7869   19.3373 C   0  0  0  0  0  0  0  0  0  0  0  0
   -5.2592  -15.5518   19.2456 S   0  0  0  0  0  0  0  0  0  0  0  0
  -10.5566  -22.7286   13.2669 C   0  0  0  0  0  0  0  0  0  0  0  0
   -5.9409  -21.1173   11.5796 H   0  0  0  0  0  0  0  0  0  0  0  0
   -6.5001  -19.6760   12.4329 H   0  0  0  0  0  0  0  0  0  0  0  0
   -6.8399  -19.8175   10.7775 H   0  0  0  0  0  0  0  0  0  0  0  0
   -7.5610  -21.8518   13.5288 H   0  0  0  0  0  0  0  0  0  0  0  0
   -7.0938  -22.8356   12.2378 H   0  0  0  0  0  0  0  0  0  0  0  0
   -8.7460  -23.2972   13.5441 H   0  0  0  0  0  0  0  0  0  0  0  0
  -10.2359  -25.0513   12.1349 H   0  0  0  0  0  0  0  0  0  0  0  0
   -8.5873  -25.2996   12.6767 H   0  0  0  0  0  0  0  0  0  0  0  0
   -9.3817  -25.2516   15.0449 H   0  0  0  0  0  0  0  0  0  0  0  0
  -10.9695  -25.3542   14.3344 H   0  0  0  0  0  0  0  0  0  0  0  0
   -9.6359  -20.1636   17.4802 H   0  0  0  0  0  0  0  0  0  0  0  0
   -8.7820  -19.5831   19.7453 H   0  0  0  0  0  0  0  0  0  0  0  0
   -7.1217  -19.8840   20.2111 H   0  0  0  0  0  0  0  0  0  0  0  0
   -4.3762  -19.0543   19.2678 H   0  0  0  0  0  0  0  0  0  0  0  0
   -2.2405  -17.5072   19.4172 H   0  0  0  0  0  0  0  0  0  0  0  0
   -2.8958  -14.9399   19.3630 H   0  0  0  0  0  0  0  0  0  0  0  0
  -11.4309  -23.2192   12.8161 H   0  0  0  0  0  0  0  0  0  0  0  0
  -10.7432  -21.6711   13.1729 H   0  0  0  0  0  0  0  0  0  0  0  0
  1  2  1  0
  2  3  1  0
  3  4  1  0
  4  5  1  0
  5  6  1  0
  6  7  1  0
  7  8  1  0
  8  9  2  0
  8 10  2  0
  8 11  1  0
 11 12  1  0
 12 13  2  0
 12 14  1  0
 14 15  1  0
 15 16  1  0
 16 17  2  0
 17 18  1  0
 18 19  2  0
 19 20  1  0
  7 21  1  0
 21  4  1  0
 20 16  1  0
  1 22  1  0
  1 23  1  0
  1 24  1  0
  3 25  1  0
  3 26  1  0
  4 27  1  0
  5 28  1  0
  5 29  1  0
  6 30  1  0
  6 31  1  0
 11 32  1  0
 14 33  1  0
 14 34  1  0
 17 35  1  0
 18 36  1  0
 19 37  1  0
 21 38  1  0
 21 39  1  0
M  END
>  <Energy>  (1075) 
147.31955927417954

>  <compound_id>  (1075) 
6351

>  <target_id>  (1075) 
1

>  <reference_id>  (1075) 
30

>  <inspiration_ids>  (1075) 
[30, 76]

>  <energy_score>  (1075) 
263.83748464475156

>  <distance_score>  (1075) 
14.145627317309527

>  <path>  (1075) 
/opt/xchem-fragalysis-2/maxwin/BulkDock/SCRATCH/511018/C6351-P30/C6351-P30.minimised.mol

>  <scratch_subdir>  (1075) 
/opt/xchem-fragalysis-2/maxwin/BulkDock/SCRATCH/511018/C6351-P30

>  <fragmenstein_runtime>  (1075) 
11.30361294746399

>  <fragmenstein_outcome>  (1075) 
too moved

>  <fragmenstein_mode>  (1075) 
expansion

>  <fragmenstein_error>  (1075) 


$$$$
C6351-P76
     RDKit          3D

 39 40  0  0  0  0  0  0  0  0999 V2000
  -10.9977  -23.8634    9.2773 C   0  0  0  0  0  0  0  0  0  0  0  0
  -10.6016  -23.0882   10.4047 O   0  0  0  0  0  0  0  0  0  0  0  0
   -9.4101  -22.3259   10.1433 C   0  0  0  0  0  0  0  0  0  0  0  0
   -8.9318  -21.6665   11.4432 C   0  0  0  0  0  0  0  0  0  0  0  0
   -8.3916  -22.7351   12.3082 C   0  0  0  0  0  0  0  0  0  0  0  0
   -7.2113  -22.1651   13.0747 C   0  0  0  0  0  0  0  0  0  0  0  0
   -6.6796  -20.7906   12.6297 N   0  0  0  0  0  0  0  0  0  0  0  0
   -4.5013  -20.2668   12.4853 S   0  0  0  0  0  0  0  0  0  0  0  0
   -4.6895  -18.8940   12.9973 O   0  0  0  0  0  0  0  0  0  0  0  0
   -3.5442  -20.8669   13.4098 O   0  0  0  0  0  0  0  0  0  0  0  0
   -3.4147  -20.1402   11.2490 N   0  0  0  0  0  0  0  0  0  0  0  0
   -2.2402  -19.1980   11.0603 C   0  0  0  0  0  0  0  0  0  0  0  0
   -1.8693  -18.2628   11.7328 O   0  0  0  0  0  0  0  0  0  0  0  0
   -1.4158  -19.3442    9.7678 C   0  0  0  0  0  0  0  0  0  0  0  0
    0.3838  -18.8686    9.9839 S   0  0  0  0  0  0  0  0  0  0  0  0
    0.6588  -17.1016    9.7793 C   0  0  0  0  0  0  0  0  0  0  0  0
   -0.0253  -16.0168   10.3011 C   0  0  0  0  0  0  0  0  0  0  0  0
    0.5084  -14.7461    9.8847 C   0  0  0  0  0  0  0  0  0  0  0  0
    1.6325  -14.8873    9.1021 C   0  0  0  0  0  0  0  0  0  0  0  0
    2.0625  -16.5363    8.9215 S   0  0  0  0  0  0  0  0  0  0  0  0
   -7.9036  -20.4734   11.5187 C   0  0  0  0  0  0  0  0  0  0  0  0
  -10.2316  -24.6050    9.0317 H   0  0  0  0  0  0  0  0  0  0  0  0
  -11.9215  -24.3907    9.5296 H   0  0  0  0  0  0  0  0  0  0  0  0
  -11.1869  -23.2145    8.4169 H   0  0  0  0  0  0  0  0  0  0  0  0
   -8.7458  -23.0902    9.7821 H   0  0  0  0  0  0  0  0  0  0  0  0
   -9.5760  -21.6030    9.3385 H   0  0  0  0  0  0  0  0  0  0  0  0
   -9.8326  -21.3234   11.9627 H   0  0  0  0  0  0  0  0  0  0  0  0
   -9.1638  -23.1043   12.9978 H   0  0  0  0  0  0  0  0  0  0  0  0
   -8.0728  -23.6222   11.7456 H   0  0  0  0  0  0  0  0  0  0  0  0
   -6.5077  -22.9441   12.8935 H   0  0  0  0  0  0  0  0  0  0  0  0
   -7.5579  -22.1462   14.0976 H   0  0  0  0  0  0  0  0  0  0  0  0
   -3.3808  -20.8604   10.5429 H   0  0  0  0  0  0  0  0  0  0  0  0
   -1.4342  -20.3918    9.4546 H   0  0  0  0  0  0  0  0  0  0  0  0
   -1.8649  -18.7293    8.9829 H   0  0  0  0  0  0  0  0  0  0  0  0
   -0.8886  -16.1189   10.9464 H   0  0  0  0  0  0  0  0  0  0  0  0
    0.0921  -13.7879   10.1694 H   0  0  0  0  0  0  0  0  0  0  0  0
    2.2452  -14.1110    8.6654 H   0  0  0  0  0  0  0  0  0  0  0  0
   -7.6186  -19.9973   10.6195 H   0  0  0  0  0  0  0  0  0  0  0  0
   -8.5751  -19.7277   11.9167 H   0  0  0  0  0  0  0  0  0  0  0  0
  1  2  1  0
  2  3  1  0
  3  4  1  0
  4  5  1  0
  5  6  1  0
  6  7  1  0
  7  8  1  0
  8  9  2  0
  8 10  2  0
  8 11  1  0
 11 12  1  0
 12 13  2  0
 12 14  1  0
 14 15  1  0
 15 16  1  0
 16 17  2  0
 17 18  1  0
 18 19  2  0
 19 20  1  0
  7 21  1  0
 21  4  1  0
 20 16  1  0
  1 22  1  0
  1 23  1  0
  1 24  1  0
  3 25  1  0
  3 26  1  0
  4 27  1  0
  5 28  1  0
  5 29  1  0
  6 30  1  0
  6 31  1  0
 11 32  1  0
 14 33  1  0
 14 34  1  0
 17 35  1  0
 18 36  1  0
 19 37  1  0
 21 38  1  0
 21 39  1  0
M  END
>  <Energy>  (1076) 
45.907240160634061

>  <compound_id>  (1076) 
6351

>  <target_id>  (1076) 
1

>  <reference_id>  (1076) 
76

>  <inspiration_ids>  (1076) 
[30, 76]

>  <energy_score>  (1076) 
162.4251655312101

>  <distance_score>  (1076) 
13.201815525265495

>  <path>  (1076) 
/opt/xchem-fragalysis-2/maxwin/BulkDock/SCRATCH/511018/C6351-P76/C6351-P76.minimised.mol

>  <scratch_subdir>  (1076) 
/opt/xchem-fragalysis-2/maxwin/BulkDock/SCRATCH/511018/C6351-P76

>  <fragmenstein_runtime>  (1076) 
24.24809980392456

>  <fragmenstein_outcome>  (1076) 
too moved

>  <fragmenstein_mode>  (1076) 
expansion

>  <fragmenstein_error>  (1076) 


$$$$
C6366-P30
     RDKit          3D

 47 48  0  0  0  0  0  0  0  0999 V2000
   -5.4787  -24.2790   11.9296 C   0  0  0  0  0  0  0  0  0  0  0  0
   -6.6118  -23.1828   12.0460 C   0  0  0  0  0  0  0  0  0  0  0  0
   -6.4014  -21.7583   12.6625 N   0  0  0  0  0  0  0  0  0  0  0  0
   -6.3765  -20.3638   12.0063 C   0  0  0  0  0  0  0  0  0  0  0  0
   -6.6176  -20.0998   10.8715 O   0  0  0  0  0  0  0  0  0  0  0  0
   -5.7515  -18.7912   12.9237 C   0  0  0  0  0  0  0  0  0  0  0  0
   -4.1398  -19.0146   13.1655 C   0  0  0  0  0  0  0  0  0  0  0  0
   -5.9919  -17.2410   12.4928 C   0  0  0  0  0  0  0  0  0  0  0  0
   -4.8137  -16.3754   12.6777 O   0  0  0  0  0  0  0  0  0  0  0  0
   -5.1383  -15.0916   13.2332 C   0  0  0  0  0  0  0  0  0  0  0  0
   -7.9187  -22.0779   13.2923 C   0  0  0  0  0  0  0  0  0  0  0  0
   -8.7304  -22.7021   14.5144 C   0  0  0  0  0  0  0  0  0  0  0  0
   -9.6587  -23.7669   13.9567 C   0  0  0  0  0  0  0  0  0  0  0  0
   -9.7025  -23.4394   12.5300 N   0  0  0  0  0  0  0  0  0  0  0  0
  -11.0123  -23.8173   12.0277 C   0  0  0  0  0  0  0  0  0  0  0  0
  -11.1215  -25.3171   12.0415 C   0  0  0  0  0  0  0  0  0  0  0  0
  -10.3506  -26.2010   11.2129 C   0  0  0  0  0  0  0  0  0  0  0  0
  -10.6192  -27.5275   11.4645 C   0  0  0  0  0  0  0  0  0  0  0  0
  -11.7860  -27.7192   12.6962 S   0  0  0  0  0  0  0  0  0  0  0  0
  -11.9603  -26.0320   12.8764 C   0  0  0  0  0  0  0  0  0  0  0  0
   -9.2657  -22.0184   12.4864 C   0  0  0  0  0  0  0  0  0  0  0  0
   -5.6790  -24.8916   11.0364 H   0  0  0  0  0  0  0  0  0  0  0  0
   -4.4848  -23.8506   11.7821 H   0  0  0  0  0  0  0  0  0  0  0  0
   -5.4427  -25.0041   12.7259 H   0  0  0  0  0  0  0  0  0  0  0  0
   -7.4939  -23.7939   12.1538 H   0  0  0  0  0  0  0  0  0  0  0  0
   -6.2469  -22.9625   11.0620 H   0  0  0  0  0  0  0  0  0  0  0  0
   -6.0057  -18.5966   13.9405 H   0  0  0  0  0  0  0  0  0  0  0  0
   -3.8823  -20.0765   13.2185 H   0  0  0  0  0  0  0  0  0  0  0  0
   -3.4971  -18.6300   12.3789 H   0  0  0  0  0  0  0  0  0  0  0  0
   -3.8307  -18.5097   14.0880 H   0  0  0  0  0  0  0  0  0  0  0  0
   -6.8229  -16.8491   13.0950 H   0  0  0  0  0  0  0  0  0  0  0  0
   -6.2918  -17.1194   11.4580 H   0  0  0  0  0  0  0  0  0  0  0  0
   -5.4429  -15.2230   14.2759 H   0  0  0  0  0  0  0  0  0  0  0  0
   -5.9618  -14.6445   12.6686 H   0  0  0  0  0  0  0  0  0  0  0  0
   -4.2916  -14.4233   13.2050 H   0  0  0  0  0  0  0  0  0  0  0  0
   -7.6322  -21.2922   13.9227 H   0  0  0  0  0  0  0  0  0  0  0  0
   -9.4205  -21.9590   14.9346 H   0  0  0  0  0  0  0  0  0  0  0  0
   -8.1513  -23.0068   15.3558 H   0  0  0  0  0  0  0  0  0  0  0  0
   -9.3286  -24.7975   14.1054 H   0  0  0  0  0  0  0  0  0  0  0  0
  -10.6284  -23.6950   14.4425 H   0  0  0  0  0  0  0  0  0  0  0  0
  -11.1261  -23.5207   10.9971 H   0  0  0  0  0  0  0  0  0  0  0  0
  -11.8286  -23.3690   12.6052 H   0  0  0  0  0  0  0  0  0  0  0  0
   -9.6206  -25.8749   10.4805 H   0  0  0  0  0  0  0  0  0  0  0  0
  -10.1765  -28.3927   10.9902 H   0  0  0  0  0  0  0  0  0  0  0  0
  -12.6561  -25.6415   13.6062 H   0  0  0  0  0  0  0  0  0  0  0  0
   -9.1325  -21.5307   11.5424 H   0  0  0  0  0  0  0  0  0  0  0  0
  -10.0465  -21.4438   12.9991 H   0  0  0  0  0  0  0  0  0  0  0  0
  1  2  1  0
  2  3  1  0
  3  4  1  0
  4  5  2  0
  4  6  1  0
  6  7  1  0
  6  8  1  0
  8  9  1  0
  9 10  1  0
  3 11  1  0
 11 12  1  0
 12 13  1  0
 13 14  1  0
 14 15  1  0
 15 16  1  0
 16 17  1  0
 17 18  2  0
 18 19  1  0
 19 20  1  0
 14 21  1  0
 21 11  1  0
 20 16  2  0
  1 22  1  0
  1 23  1  0
  1 24  1  0
  2 25  1  0
  2 26  1  0
  6 27  1  0
  7 28  1  0
  7 29  1  0
  7 30  1  0
  8 31  1  0
  8 32  1  0
 10 33  1  0
 10 34  1  0
 10 35  1  0
 11 36  1  0
 12 37  1  0
 12 38  1  0
 13 39  1  0
 13 40  1  0
 15 41  1  0
 15 42  1  0
 17 43  1  0
 18 44  1  0
 20 45  1  0
 21 46  1  0
 21 47  1  0
M  END
>  <Energy>  (1077) 
287.49532723222143

>  <compound_id>  (1077) 
6366

>  <target_id>  (1077) 
1

>  <reference_id>  (1077) 
30

>  <inspiration_ids>  (1077) 
[30, 76]

>  <energy_score>  (1077) 
204.75456942655046

>  <distance_score>  (1077) 
12.87034531743345

>  <path>  (1077) 
/opt/xchem-fragalysis-2/maxwin/BulkDock/SCRATCH/511018/C6366-P30/C6366-P30.minimised.mol

>  <scratch_subdir>  (1077) 
/opt/xchem-fragalysis-2/maxwin/BulkDock/SCRATCH/511018/C6366-P30

>  <fragmenstein_runtime>  (1077) 
12.83359956741333

>  <fragmenstein_outcome>  (1077) 
too moved

>  <fragmenstein_mode>  (1077) 
expansion

>  <fragmenstein_error>  (1077) 


$$$$
C6366-P76
     RDKit          3D

 47 48  0  0  0  0  0  0  0  0999 V2000
   -9.5241  -21.1070    9.0142 C   0  0  0  0  0  0  0  0  0  0  0  0
   -9.1906  -21.5324   10.4793 C   0  0  0  0  0  0  0  0  0  0  0  0
   -8.9147  -20.5366   11.5268 N   0  0  0  0  0  0  0  0  0  0  0  0
   -7.5873  -19.4158   11.7557 C   0  0  0  0  0  0  0  0  0  0  0  0
   -6.7115  -19.5115   11.0100 O   0  0  0  0  0  0  0  0  0  0  0  0
   -7.2916  -17.7741   12.9329 C   0  0  0  0  0  0  0  0  0  0  0  0
   -8.7319  -16.9963   13.2106 C   0  0  0  0  0  0  0  0  0  0  0  0
   -6.3614  -16.3569   13.3860 C   0  0  0  0  0  0  0  0  0  0  0  0
   -4.9563  -16.2914   13.7413 O   0  0  0  0  0  0  0  0  0  0  0  0
   -4.5369  -14.9773   14.1689 C   0  0  0  0  0  0  0  0  0  0  0  0
   -8.6709  -22.0893   12.4731 C   0  0  0  0  0  0  0  0  0  0  0  0
   -8.2570  -23.5152   11.7064 C   0  0  0  0  0  0  0  0  0  0  0  0
   -9.1967  -24.6075   12.0813 C   0  0  0  0  0  0  0  0  0  0  0  0
   -9.7262  -24.1609   13.3273 N   0  0  0  0  0  0  0  0  0  0  0  0
  -10.6710  -25.1385   13.8332 C   0  0  0  0  0  0  0  0  0  0  0  0
  -11.8492  -25.3924   12.9341 C   0  0  0  0  0  0  0  0  0  0  0  0
  -11.9113  -26.4881   11.9982 C   0  0  0  0  0  0  0  0  0  0  0  0
  -13.0783  -26.5124   11.2693 C   0  0  0  0  0  0  0  0  0  0  0  0
  -14.1205  -25.2363   11.7059 S   0  0  0  0  0  0  0  0  0  0  0  0
  -13.0228  -24.6696   12.8839 C   0  0  0  0  0  0  0  0  0  0  0  0
   -9.9191  -22.6935   13.2585 C   0  0  0  0  0  0  0  0  0  0  0  0
  -10.5757  -21.1664    8.7202 H   0  0  0  0  0  0  0  0  0  0  0  0
   -9.1819  -20.1050    8.7774 H   0  0  0  0  0  0  0  0  0  0  0  0
   -9.1277  -21.8670    8.3391 H   0  0  0  0  0  0  0  0  0  0  0  0
   -8.2680  -21.9350   10.3097 H   0  0  0  0  0  0  0  0  0  0  0  0
   -9.9819  -22.2498   10.7242 H   0  0  0  0  0  0  0  0  0  0  0  0
   -6.8084  -17.4264   12.0003 H   0  0  0  0  0  0  0  0  0  0  0  0
   -8.7390  -16.0113   12.7261 H   0  0  0  0  0  0  0  0  0  0  0  0
   -9.6149  -17.5259   12.8368 H   0  0  0  0  0  0  0  0  0  0  0  0
   -8.8749  -16.8397   14.2859 H   0  0  0  0  0  0  0  0  0  0  0  0
   -6.8859  -15.9123   14.2428 H   0  0  0  0  0  0  0  0  0  0  0  0
   -6.4971  -15.6194   12.5756 H   0  0  0  0  0  0  0  0  0  0  0  0
   -3.6832  -15.1104   14.8318 H   0  0  0  0  0  0  0  0  0  0  0  0
   -5.3251  -14.4802   14.7429 H   0  0  0  0  0  0  0  0  0  0  0  0
   -4.2935  -14.3890   13.2894 H   0  0  0  0  0  0  0  0  0  0  0  0
   -7.7505  -21.9693   13.0664 H   0  0  0  0  0  0  0  0  0  0  0  0
   -7.2246  -23.7823   11.9352 H   0  0  0  0  0  0  0  0  0  0  0  0
   -8.3719  -23.6132   10.6342 H   0  0  0  0  0  0  0  0  0  0  0  0
   -9.9650  -24.6931   11.3028 H   0  0  0  0  0  0  0  0  0  0  0  0
   -8.6738  -25.5688   12.1437 H   0  0  0  0  0  0  0  0  0  0  0  0
  -10.9408  -24.9636   14.8629 H   0  0  0  0  0  0  0  0  0  0  0  0
  -10.1311  -26.0944   13.9266 H   0  0  0  0  0  0  0  0  0  0  0  0
  -11.1207  -27.2173   11.8635 H   0  0  0  0  0  0  0  0  0  0  0  0
  -13.3671  -27.2184   10.5027 H   0  0  0  0  0  0  0  0  0  0  0  0
  -13.3116  -23.8174   13.4730 H   0  0  0  0  0  0  0  0  0  0  0  0
  -10.8473  -22.4426   12.7465 H   0  0  0  0  0  0  0  0  0  0  0  0
   -9.9004  -22.2775   14.2625 H   0  0  0  0  0  0  0  0  0  0  0  0
  1  2  1  0
  2  3  1  0
  3  4  1  0
  4  5  2  0
  4  6  1  0
  6  7  1  0
  6  8  1  0
  8  9  1  0
  9 10  1  0
  3 11  1  0
 11 12  1  0
 12 13  1  0
 13 14  1  0
 14 15  1  0
 15 16  1  0
 16 17  1  0
 17 18  2  0
 18 19  1  0
 19 20  1  0
 14 21  1  0
 21 11  1  0
 20 16  2  0
  1 22  1  0
  1 23  1  0
  1 24  1  0
  2 25  1  0
  2 26  1  0
  6 27  1  0
  7 28  1  0
  7 29  1  0
  7 30  1  0
  8 31  1  0
  8 32  1  0
 10 33  1  0
 10 34  1  0
 10 35  1  0
 11 36  1  0
 12 37  1  0
 12 38  1  0
 13 39  1  0
 13 40  1  0
 15 41  1  0
 15 42  1  0
 17 43  1  0
 18 44  1  0
 20 45  1  0
 21 46  1  0
 21 47  1  0
M  END
>  <Energy>  (1078) 
404.2349198144135

>  <compound_id>  (1078) 
6366

>  <target_id>  (1078) 
1

>  <reference_id>  (1078) 
76

>  <inspiration_ids>  (1078) 
[30, 76]

>  <energy_score>  (1078) 
321.49416200874316

>  <distance_score>  (1078) 
12.760580894019673

>  <path>  (1078) 
/opt/xchem-fragalysis-2/maxwin/BulkDock/SCRATCH/511018/C6366-P76/C6366-P76.minimised.mol

>  <scratch_subdir>  (1078) 
/opt/xchem-fragalysis-2/maxwin/BulkDock/SCRATCH/511018/C6366-P76

>  <fragmenstein_runtime>  (1078) 
7.201352834701538

>  <fragmenstein_outcome>  (1078) 
too moved

>  <fragmenstein_mode>  (1078) 
expansion

>  <fragmenstein_error>  (1078) 


$$$$
C6382-P30
     RDKit          3D

 44 45  0  0  0  0  0  0  0  0999 V2000
   -5.8661  -24.1162   11.5293 C   0  0  0  0  0  0  0  0  0  0  0  0
   -5.1149  -23.4139   10.4172 C   0  0  0  0  0  0  0  0  0  0  0  0
   -4.1617  -24.4285    9.7861 C   0  0  0  0  0  0  0  0  0  0  0  0
   -4.2105  -21.8896   10.8519 S   0  0  0  0  0  0  0  0  0  0  0  0
   -4.2288  -21.0514    9.6650 O   0  0  0  0  0  0  0  0  0  0  0  0
   -2.9214  -22.3697   11.3224 O   0  0  0  0  0  0  0  0  0  0  0  0
   -4.9667  -20.8887   12.1733 C   0  0  0  0  0  0  0  0  0  0  0  0
   -5.7995  -19.6969   11.9447 C   0  0  0  0  0  0  0  0  0  0  0  0
   -5.4553  -18.7794   13.1990 C   0  0  0  0  0  0  0  0  0  0  0  0
   -3.8815  -18.7722   13.8668 N   0  0  0  0  0  0  0  0  0  0  0  0
   -3.9181  -18.2804   15.4488 C   0  0  0  0  0  0  0  0  0  0  0  0
   -4.0314  -18.9350   16.4816 O   0  0  0  0  0  0  0  0  0  0  0  0
   -3.9366  -16.7831   15.7747 C   0  0  0  0  0  0  0  0  0  0  0  0
   -4.0892  -16.2927   17.3933 C   0  0  0  0  0  0  0  0  0  0  0  0
   -3.1368  -15.6366   18.5294 C   0  0  0  0  0  0  0  0  0  0  0  0
   -2.2823  -14.3338   18.6529 C   0  0  0  0  0  0  0  0  0  0  0  0
   -0.8897  -14.3478   19.0992 C   0  0  0  0  0  0  0  0  0  0  0  0
   -0.4200  -13.1325   19.5439 C   0  0  0  0  0  0  0  0  0  0  0  0
   -1.5731  -11.8993   19.3145 S   0  0  0  0  0  0  0  0  0  0  0  0
   -2.7356  -13.0272   18.7327 C   0  0  0  0  0  0  0  0  0  0  0  0
   -3.8646  -20.3714   13.1945 C   0  0  0  0  0  0  0  0  0  0  0  0
   -5.1705  -24.5806   12.2328 H   0  0  0  0  0  0  0  0  0  0  0  0
   -6.4844  -24.9248   11.1223 H   0  0  0  0  0  0  0  0  0  0  0  0
   -6.5292  -23.4482   12.0755 H   0  0  0  0  0  0  0  0  0  0  0  0
   -5.7769  -23.1391    9.6010 H   0  0  0  0  0  0  0  0  0  0  0  0
   -4.7124  -25.2873    9.3867 H   0  0  0  0  0  0  0  0  0  0  0  0
   -3.6040  -23.9780    8.9576 H   0  0  0  0  0  0  0  0  0  0  0  0
   -3.4313  -24.8066   10.5098 H   0  0  0  0  0  0  0  0  0  0  0  0
   -5.7562  -21.5439   12.5301 H   0  0  0  0  0  0  0  0  0  0  0  0
   -6.8689  -19.9409   11.9500 H   0  0  0  0  0  0  0  0  0  0  0  0
   -5.6471  -19.2760   10.9478 H   0  0  0  0  0  0  0  0  0  0  0  0
   -5.8948  -17.8226   12.8375 H   0  0  0  0  0  0  0  0  0  0  0  0
   -6.0199  -18.5272   14.0600 H   0  0  0  0  0  0  0  0  0  0  0  0
   -3.2826  -16.2163   15.1470 H   0  0  0  0  0  0  0  0  0  0  0  0
   -4.9512  -16.6076   15.4017 H   0  0  0  0  0  0  0  0  0  0  0  0
   -4.3961  -17.2215   17.8970 H   0  0  0  0  0  0  0  0  0  0  0  0
   -5.0209  -15.7252   17.4701 H   0  0  0  0  0  0  0  0  0  0  0  0
   -2.5420  -16.4650   18.9460 H   0  0  0  0  0  0  0  0  0  0  0  0
   -3.8597  -15.4809   19.3517 H   0  0  0  0  0  0  0  0  0  0  0  0
   -0.3039  -15.2527   19.2132 H   0  0  0  0  0  0  0  0  0  0  0  0
    0.5443  -12.9240   19.9891 H   0  0  0  0  0  0  0  0  0  0  0  0
   -3.7489  -12.6808   18.5915 H   0  0  0  0  0  0  0  0  0  0  0  0
   -2.9213  -20.6564   12.7521 H   0  0  0  0  0  0  0  0  0  0  0  0
   -3.6153  -20.9796   14.0631 H   0  0  0  0  0  0  0  0  0  0  0  0
  1  2  1  0
  2  3  1  0
  2  4  1  0
  4  5  2  0
  4  6  2  0
  4  7  1  0
  7  8  1  0
  8  9  1  0
  9 10  1  0
 10 11  1  0
 11 12  2  0
 11 13  1  0
 13 14  1  0
 14 15  1  0
 15 16  1  0
 16 17  1  0
 17 18  2  0
 18 19  1  0
 19 20  1  0
 10 21  1  0
 21  7  1  0
 20 16  2  0
  1 22  1  0
  1 23  1  0
  1 24  1  0
  2 25  1  0
  3 26  1  0
  3 27  1  0
  3 28  1  0
  7 29  1  0
  8 30  1  0
  8 31  1  0
  9 32  1  0
  9 33  1  0
 13 34  1  0
 13 35  1  0
 14 36  1  0
 14 37  1  0
 15 38  1  0
 15 39  1  0
 17 40  1  0
 18 41  1  0
 20 42  1  0
 21 43  1  0
 21 44  1  0
M  END
>  <Energy>  (1079) 
222.1466564923868

>  <compound_id>  (1079) 
6382

>  <target_id>  (1079) 
1

>  <reference_id>  (1079) 
30

>  <inspiration_ids>  (1079) 
[30, 76]

>  <energy_score>  (1079) 
190.66276263494893

>  <distance_score>  (1079) 
13.799520355246829

>  <path>  (1079) 
/opt/xchem-fragalysis-2/maxwin/BulkDock/SCRATCH/511018/C6382-P30/C6382-P30.minimised.mol

>  <scratch_subdir>  (1079) 
/opt/xchem-fragalysis-2/maxwin/BulkDock/SCRATCH/511018/C6382-P30

>  <fragmenstein_runtime>  (1079) 
12.515052556991577

>  <fragmenstein_outcome>  (1079) 
too moved

>  <fragmenstein_mode>  (1079) 
expansion

>  <fragmenstein_error>  (1079) 


$$$$
C6382-P76
     RDKit          3D

 44 45  0  0  0  0  0  0  0  0999 V2000
   -5.0970  -17.0939   17.1882 C   0  0  0  0  0  0  0  0  0  0  0  0
   -5.4951  -16.8052   18.6244 C   0  0  0  0  0  0  0  0  0  0  0  0
   -6.3561  -17.9642   19.1397 C   0  0  0  0  0  0  0  0  0  0  0  0
   -4.0050  -16.5294   19.6680 S   0  0  0  0  0  0  0  0  0  0  0  0
   -2.8483  -17.0453   18.9578 O   0  0  0  0  0  0  0  0  0  0  0  0
   -4.2987  -17.0307   20.9986 O   0  0  0  0  0  0  0  0  0  0  0  0
   -3.7401  -14.7486   19.8755 C   0  0  0  0  0  0  0  0  0  0  0  0
   -3.6714  -13.9303   18.6433 C   0  0  0  0  0  0  0  0  0  0  0  0
   -2.3956  -13.0928   18.8815 C   0  0  0  0  0  0  0  0  0  0  0  0
   -1.9890  -12.8666   20.3179 N   0  0  0  0  0  0  0  0  0  0  0  0
   -0.6797  -12.1832   20.3804 C   0  0  0  0  0  0  0  0  0  0  0  0
    0.4363  -12.6371   20.4328 O   0  0  0  0  0  0  0  0  0  0  0  0
   -0.8042  -10.6118   20.5009 C   0  0  0  0  0  0  0  0  0  0  0  0
    0.3137   -9.5666   20.0049 C   0  0  0  0  0  0  0  0  0  0  0  0
    1.8452   -9.7175   20.3262 C   0  0  0  0  0  0  0  0  0  0  0  0
    2.8585   -8.7142   19.7160 C   0  0  0  0  0  0  0  0  0  0  0  0
    4.1972   -8.5350   20.2460 C   0  0  0  0  0  0  0  0  0  0  0  0
    4.9691   -7.6359   19.5397 C   0  0  0  0  0  0  0  0  0  0  0  0
    4.1215   -6.9962   18.2073 S   0  0  0  0  0  0  0  0  0  0  0  0
    2.7151   -7.9111   18.5960 C   0  0  0  0  0  0  0  0  0  0  0  0
   -2.3478  -14.3742   20.4147 C   0  0  0  0  0  0  0  0  0  0  0  0
   -4.7023  -18.1074   17.0778 H   0  0  0  0  0  0  0  0  0  0  0  0
   -4.3068  -16.4270   16.8549 H   0  0  0  0  0  0  0  0  0  0  0  0
   -5.9557  -16.9313   16.5349 H   0  0  0  0  0  0  0  0  0  0  0  0
   -6.0678  -15.8733   18.6847 H   0  0  0  0  0  0  0  0  0  0  0  0
   -7.2316  -18.1158   18.5001 H   0  0  0  0  0  0  0  0  0  0  0  0
   -5.7844  -18.8975   19.1792 H   0  0  0  0  0  0  0  0  0  0  0  0
   -6.7180  -17.7553   20.1518 H   0  0  0  0  0  0  0  0  0  0  0  0
   -4.5253  -14.3825   20.5462 H   0  0  0  0  0  0  0  0  0  0  0  0
   -4.5541  -13.2881   18.5598 H   0  0  0  0  0  0  0  0  0  0  0  0
   -3.5637  -14.5074   17.7249 H   0  0  0  0  0  0  0  0  0  0  0  0
   -1.5423  -13.4980   18.3214 H   0  0  0  0  0  0  0  0  0  0  0  0
   -2.5483  -12.0944   18.4505 H   0  0  0  0  0  0  0  0  0  0  0  0
   -1.7447  -10.3184   20.0182 H   0  0  0  0  0  0  0  0  0  0  0  0
   -0.9392  -10.4300   21.5757 H   0  0  0  0  0  0  0  0  0  0  0  0
    0.1898   -9.4392   18.9285 H   0  0  0  0  0  0  0  0  0  0  0  0
    0.0071   -8.5941   20.4167 H   0  0  0  0  0  0  0  0  0  0  0  0
    2.1864  -10.7178   20.0418 H   0  0  0  0  0  0  0  0  0  0  0  0
    1.9496   -9.6610   21.4180 H   0  0  0  0  0  0  0  0  0  0  0  0
    4.5675   -9.0631   21.1169 H   0  0  0  0  0  0  0  0  0  0  0  0
    5.9859   -7.3309   19.7445 H   0  0  0  0  0  0  0  0  0  0  0  0
    1.8478   -7.8203   17.9584 H   0  0  0  0  0  0  0  0  0  0  0  0
   -1.5224  -14.9687   19.9920 H   0  0  0  0  0  0  0  0  0  0  0  0
   -2.3114  -14.5946   21.4898 H   0  0  0  0  0  0  0  0  0  0  0  0
  1  2  1  0
  2  3  1  0
  2  4  1  0
  4  5  2  0
  4  6  2  0
  4  7  1  0
  7  8  1  0
  8  9  1  0
  9 10  1  0
 10 11  1  0
 11 12  2  0
 11 13  1  0
 13 14  1  0
 14 15  1  0
 15 16  1  0
 16 17  1  0
 17 18  2  0
 18 19  1  0
 19 20  1  0
 10 21  1  0
 21  7  1  0
 20 16  2  0
  1 22  1  0
  1 23  1  0
  1 24  1  0
  2 25  1  0
  3 26  1  0
  3 27  1  0
  3 28  1  0
  7 29  1  0
  8 30  1  0
  8 31  1  0
  9 32  1  0
  9 33  1  0
 13 34  1  0
 13 35  1  0
 14 36  1  0
 14 37  1  0
 15 38  1  0
 15 39  1  0
 17 40  1  0
 18 41  1  0
 20 42  1  0
 21 43  1  0
 21 44  1  0
M  END
>  <Energy>  (1080) 
70.392534869802631

>  <compound_id>  (1080) 
6382

>  <target_id>  (1080) 
1

>  <reference_id>  (1080) 
76

>  <inspiration_ids>  (1080) 
[30, 76]

>  <energy_score>  (1080) 
38.90864101236616

>  <distance_score>  (1080) 
14.535381296574265

>  <path>  (1080) 
/opt/xchem-fragalysis-2/maxwin/BulkDock/SCRATCH/511018/C6382-P76/C6382-P76.minimised.mol

>  <scratch_subdir>  (1080) 
/opt/xchem-fragalysis-2/maxwin/BulkDock/SCRATCH/511018/C6382-P76

>  <fragmenstein_runtime>  (1080) 
26.383601665496826

>  <fragmenstein_outcome>  (1080) 
too moved

>  <fragmenstein_mode>  (1080) 
expansion

>  <fragmenstein_error>  (1080) 


$$$$
C6383-P30
     RDKit          3D

 43 44  0  0  0  0  0  0  0  0999 V2000
   -5.3067  -16.5011   10.3151 C   0  0  0  0  0  0  0  0  0  0  0  0
   -5.1285  -16.2366    8.8318 C   0  0  0  0  0  0  0  0  0  0  0  0
   -5.8232  -17.3152    7.9980 C   0  0  0  0  0  0  0  0  0  0  0  0
   -3.3850  -16.1446    8.3298 S   0  0  0  0  0  0  0  0  0  0  0  0
   -3.3772  -15.7076    6.9436 O   0  0  0  0  0  0  0  0  0  0  0  0
   -2.7795  -17.4150    8.6749 O   0  0  0  0  0  0  0  0  0  0  0  0
   -2.5547  -14.8349    9.2803 C   0  0  0  0  0  0  0  0  0  0  0  0
   -2.8702  -13.4418    8.8629 C   0  0  0  0  0  0  0  0  0  0  0  0
   -1.4876  -12.9411    8.4055 C   0  0  0  0  0  0  0  0  0  0  0  0
   -0.3145  -13.4843    9.1958 N   0  0  0  0  0  0  0  0  0  0  0  0
    0.9943  -12.9764    8.6146 C   0  0  0  0  0  0  0  0  0  0  0  0
    1.6697  -13.4640    7.7866 O   0  0  0  0  0  0  0  0  0  0  0  0
    1.2232  -11.7612    9.4488 N   0  0  0  0  0  0  0  0  0  0  0  0
    2.4101  -10.8648    9.5531 C   0  0  0  0  0  0  0  0  0  0  0  0
    2.4306   -9.6304   10.5014 C   0  0  0  0  0  0  0  0  0  0  0  0
    3.8069   -8.9922   10.7577 C   0  0  0  0  0  0  0  0  0  0  0  0
    4.6944   -8.4633    9.7542 C   0  0  0  0  0  0  0  0  0  0  0  0
    5.8631   -7.9414   10.2722 C   0  0  0  0  0  0  0  0  0  0  0  0
    5.9165   -8.0789   11.9666 S   0  0  0  0  0  0  0  0  0  0  0  0
    4.3679   -8.7925   12.0123 C   0  0  0  0  0  0  0  0  0  0  0  0
   -1.0598  -14.8006    8.9648 C   0  0  0  0  0  0  0  0  0  0  0  0
   -5.0686  -17.5372   10.5696 H   0  0  0  0  0  0  0  0  0  0  0  0
   -4.6821  -15.8315   10.9096 H   0  0  0  0  0  0  0  0  0  0  0  0
   -6.3287  -16.2912   10.6283 H   0  0  0  0  0  0  0  0  0  0  0  0
   -5.5475  -15.2559    8.5784 H   0  0  0  0  0  0  0  0  0  0  0  0
   -5.5713  -17.2189    6.9363 H   0  0  0  0  0  0  0  0  0  0  0  0
   -6.9084  -17.2292    8.0627 H   0  0  0  0  0  0  0  0  0  0  0  0
   -5.5102  -18.3135    8.3151 H   0  0  0  0  0  0  0  0  0  0  0  0
   -2.7366  -14.9829   10.3433 H   0  0  0  0  0  0  0  0  0  0  0  0
   -3.6149  -13.3441    8.0683 H   0  0  0  0  0  0  0  0  0  0  0  0
   -3.2168  -12.8466    9.7111 H   0  0  0  0  0  0  0  0  0  0  0  0
   -1.3257  -13.1203    7.3286 H   0  0  0  0  0  0  0  0  0  0  0  0
   -1.4559  -11.8482    8.5095 H   0  0  0  0  0  0  0  0  0  0  0  0
    0.4726  -11.6743   10.1233 H   0  0  0  0  0  0  0  0  0  0  0  0
    3.2432  -11.5269    9.8163 H   0  0  0  0  0  0  0  0  0  0  0  0
    2.6202  -10.5347    8.5284 H   0  0  0  0  0  0  0  0  0  0  0  0
    1.7611   -8.8611   10.0973 H   0  0  0  0  0  0  0  0  0  0  0  0
    2.0002   -9.9374   11.4587 H   0  0  0  0  0  0  0  0  0  0  0  0
    4.4821   -8.4722    8.6912 H   0  0  0  0  0  0  0  0  0  0  0  0
    6.6851   -7.4937    9.7298 H   0  0  0  0  0  0  0  0  0  0  0  0
    3.9485   -9.0594   12.9728 H   0  0  0  0  0  0  0  0  0  0  0  0
   -0.8147  -15.1630    7.9520 H   0  0  0  0  0  0  0  0  0  0  0  0
   -0.5480  -15.5186    9.6203 H   0  0  0  0  0  0  0  0  0  0  0  0
  1  2  1  0
  2  3  1  0
  2  4  1  0
  4  5  2  0
  4  6  2  0
  4  7  1  0
  7  8  1  0
  8  9  1  0
  9 10  1  0
 10 11  1  0
 11 12  2  0
 11 13  1  0
 13 14  1  0
 14 15  1  0
 15 16  1  0
 16 17  1  0
 17 18  2  0
 18 19  1  0
 19 20  1  0
 10 21  1  0
 21  7  1  0
 20 16  2  0
  1 22  1  0
  1 23  1  0
  1 24  1  0
  2 25  1  0
  3 26  1  0
  3 27  1  0
  3 28  1  0
  7 29  1  0
  8 30  1  0
  8 31  1  0
  9 32  1  0
  9 33  1  0
 13 34  1  0
 14 35  1  0
 14 36  1  0
 15 37  1  0
 15 38  1  0
 17 39  1  0
 18 40  1  0
 20 41  1  0
 21 42  1  0
 21 43  1  0
M  END
>  <Energy>  (1081) 
6.3857891103666944

>  <compound_id>  (1081) 
6383

>  <target_id>  (1081) 
1

>  <reference_id>  (1081) 
30

>  <inspiration_ids>  (1081) 
[30, 76]

>  <energy_score>  (1081) 
23.43307295409045

>  <distance_score>  (1081) 
14.477751559306977

>  <path>  (1081) 
/opt/xchem-fragalysis-2/maxwin/BulkDock/SCRATCH/511018/C6383-P30/C6383-P30.minimised.mol

>  <scratch_subdir>  (1081) 
/opt/xchem-fragalysis-2/maxwin/BulkDock/SCRATCH/511018/C6383-P30

>  <fragmenstein_runtime>  (1081) 
25.56913137435913

>  <fragmenstein_outcome>  (1081) 
too moved

>  <fragmenstein_mode>  (1081) 
expansion

>  <fragmenstein_error>  (1081) 


$$$$
C6383-P76
     RDKit          3D

 43 44  0  0  0  0  0  0  0  0999 V2000
   -5.1903  -16.7788   10.1370 C   0  0  0  0  0  0  0  0  0  0  0  0
   -4.9617  -16.9168    8.6412 C   0  0  0  0  0  0  0  0  0  0  0  0
   -6.2856  -17.0038    7.8786 C   0  0  0  0  0  0  0  0  0  0  0  0
   -4.0611  -15.4735    7.9732 S   0  0  0  0  0  0  0  0  0  0  0  0
   -4.7515  -14.2842    8.4343 O   0  0  0  0  0  0  0  0  0  0  0  0
   -3.9260  -15.7109    6.5448 O   0  0  0  0  0  0  0  0  0  0  0  0
   -2.4023  -15.4811    8.6476 C   0  0  0  0  0  0  0  0  0  0  0  0
   -1.3085  -15.3232    7.6612 C   0  0  0  0  0  0  0  0  0  0  0  0
   -0.2848  -14.6592    8.5736 C   0  0  0  0  0  0  0  0  0  0  0  0
   -0.7870  -13.3933    9.2064 N   0  0  0  0  0  0  0  0  0  0  0  0
    0.2714  -12.8067   10.1145 C   0  0  0  0  0  0  0  0  0  0  0  0
    0.4504  -12.9900   11.2571 O   0  0  0  0  0  0  0  0  0  0  0  0
    0.9396  -11.8749    9.1826 N   0  0  0  0  0  0  0  0  0  0  0  0
    1.9679  -10.8199    9.4292 C   0  0  0  0  0  0  0  0  0  0  0  0
    3.4292  -11.2708    9.6947 C   0  0  0  0  0  0  0  0  0  0  0  0
    4.4459  -10.2541   10.2310 C   0  0  0  0  0  0  0  0  0  0  0  0
    4.4247   -9.6454   11.5370 C   0  0  0  0  0  0  0  0  0  0  0  0
    5.5946   -8.9859   11.8523 C   0  0  0  0  0  0  0  0  0  0  0  0
    6.6912   -8.9823   10.5434 S   0  0  0  0  0  0  0  0  0  0  0  0
    5.6170   -9.8959    9.5776 C   0  0  0  0  0  0  0  0  0  0  0  0
   -2.0009  -14.3038    9.5335 C   0  0  0  0  0  0  0  0  0  0  0  0
   -5.3814  -17.7478   10.6034 H   0  0  0  0  0  0  0  0  0  0  0  0
   -4.3217  -16.3320   10.6203 H   0  0  0  0  0  0  0  0  0  0  0  0
   -6.0282  -16.1091   10.3553 H   0  0  0  0  0  0  0  0  0  0  0  0
   -4.3373  -17.7893    8.4219 H   0  0  0  0  0  0  0  0  0  0  0  0
   -6.8957  -17.8424    8.1808 H   0  0  0  0  0  0  0  0  0  0  0  0
   -6.1088  -17.1134    6.8031 H   0  0  0  0  0  0  0  0  0  0  0  0
   -6.8807  -16.0934    8.0122 H   0  0  0  0  0  0  0  0  0  0  0  0
   -2.2909  -16.4336    9.1682 H   0  0  0  0  0  0  0  0  0  0  0  0
   -0.9538  -16.2743    7.2543 H   0  0  0  0  0  0  0  0  0  0  0  0
   -1.5660  -14.6553    6.8315 H   0  0  0  0  0  0  0  0  0  0  0  0
    0.5892  -14.3779    7.9711 H   0  0  0  0  0  0  0  0  0  0  0  0
    0.1141  -15.3406    9.3454 H   0  0  0  0  0  0  0  0  0  0  0  0
    0.4793  -11.9177    8.2833 H   0  0  0  0  0  0  0  0  0  0  0  0
    1.9388  -10.1431    8.5688 H   0  0  0  0  0  0  0  0  0  0  0  0
    1.6081  -10.2639   10.3025 H   0  0  0  0  0  0  0  0  0  0  0  0
    3.8194  -11.6936    8.7589 H   0  0  0  0  0  0  0  0  0  0  0  0
    3.4079  -12.1132   10.3944 H   0  0  0  0  0  0  0  0  0  0  0  0
    3.6175   -9.7642   12.2507 H   0  0  0  0  0  0  0  0  0  0  0  0
    5.8526   -8.5137   12.7915 H   0  0  0  0  0  0  0  0  0  0  0  0
    5.9279  -10.1905    8.5846 H   0  0  0  0  0  0  0  0  0  0  0  0
   -1.8163  -14.6825   10.5488 H   0  0  0  0  0  0  0  0  0  0  0  0
   -2.8207  -13.5891    9.6533 H   0  0  0  0  0  0  0  0  0  0  0  0
  1  2  1  0
  2  3  1  0
  2  4  1  0
  4  5  2  0
  4  6  2  0
  4  7  1  0
  7  8  1  0
  8  9  1  0
  9 10  1  0
 10 11  1  0
 11 12  2  0
 11 13  1  0
 13 14  1  0
 14 15  1  0
 15 16  1  0
 16 17  1  0
 17 18  2  0
 18 19  1  0
 19 20  1  0
 10 21  1  0
 21  7  1  0
 20 16  2  0
  1 22  1  0
  1 23  1  0
  1 24  1  0
  2 25  1  0
  3 26  1  0
  3 27  1  0
  3 28  1  0
  7 29  1  0
  8 30  1  0
  8 31  1  0
  9 32  1  0
  9 33  1  0
 13 34  1  0
 14 35  1  0
 14 36  1  0
 15 37  1  0
 15 38  1  0
 17 39  1  0
 18 40  1  0
 20 41  1  0
 21 42  1  0
 21 43  1  0
M  END
>  <Energy>  (1082) 
13.505804097852325

>  <compound_id>  (1082) 
6383

>  <target_id>  (1082) 
1

>  <reference_id>  (1082) 
76

>  <inspiration_ids>  (1082) 
[30, 76]

>  <energy_score>  (1082) 
30.55308794157952

>  <distance_score>  (1082) 
14.413457167536373

>  <path>  (1082) 
/opt/xchem-fragalysis-2/maxwin/BulkDock/SCRATCH/511018/C6383-P76/C6383-P76.minimised.mol

>  <scratch_subdir>  (1082) 
/opt/xchem-fragalysis-2/maxwin/BulkDock/SCRATCH/511018/C6383-P76

>  <fragmenstein_runtime>  (1082) 
17.513701677322388

>  <fragmenstein_outcome>  (1082) 
too moved

>  <fragmenstein_mode>  (1082) 
expansion

>  <fragmenstein_error>  (1082) 


$$$$
C6384-P30
     RDKit          3D

 45 46  0  0  0  0  0  0  0  0999 V2000
   -5.1427  -11.7581    7.4859 C   0  0  0  0  0  0  0  0  0  0  0  0
   -4.3270  -10.5904    8.1200 C   0  0  0  0  0  0  0  0  0  0  0  0
   -5.2734   -9.7907    9.0224 C   0  0  0  0  0  0  0  0  0  0  0  0
   -3.6281   -9.4878    6.7544 S   0  0  0  0  0  0  0  0  0  0  0  0
   -4.5364   -8.3509    6.6818 O   0  0  0  0  0  0  0  0  0  0  0  0
   -3.5364  -10.3322    5.5713 O   0  0  0  0  0  0  0  0  0  0  0  0
   -1.9739   -8.7154    6.8706 C   0  0  0  0  0  0  0  0  0  0  0  0
   -0.8272   -9.2822    6.1162 C   0  0  0  0  0  0  0  0  0  0  0  0
    0.3151   -8.4781    6.7804 C   0  0  0  0  0  0  0  0  0  0  0  0
    0.3568   -8.4892    8.2910 N   0  0  0  0  0  0  0  0  0  0  0  0
    1.4714   -7.5875    8.7928 C   0  0  0  0  0  0  0  0  0  0  0  0
    1.4561   -6.4120    9.0844 O   0  0  0  0  0  0  0  0  0  0  0  0
    2.9562   -8.3266    9.1203 C   0  0  0  0  0  0  0  0  0  0  0  0
    3.0462   -9.4939    8.8490 O   0  0  0  0  0  0  0  0  0  0  0  0
    3.9310   -7.4025    9.8115 N   0  0  0  0  0  0  0  0  0  0  0  0
    5.3060   -7.6908   10.4807 C   0  0  0  0  0  0  0  0  0  0  0  0
    6.7018   -7.0445    9.9785 C   0  0  0  0  0  0  0  0  0  0  0  0
    7.8422   -6.4569   11.0044 C   0  0  0  0  0  0  0  0  0  0  0  0
    8.0018   -6.5816   12.5012 C   0  0  0  0  0  0  0  0  0  0  0  0
    8.7169   -5.1592   13.6006 C   0  0  0  0  0  0  0  0  0  0  0  0
   10.6251   -4.1435   12.1564 S   0  0  0  0  0  0  0  0  0  0  0  0
    8.5930   -4.9762   10.6336 C   0  0  0  0  0  0  0  0  0  0  0  0
   -1.2313   -8.1989    8.1007 C   0  0  0  0  0  0  0  0  0  0  0  0
   -4.5139  -12.4248    6.8922 H   0  0  0  0  0  0  0  0  0  0  0  0
   -5.6660  -12.3649    8.2269 H   0  0  0  0  0  0  0  0  0  0  0  0
   -5.9043  -11.3544    6.8080 H   0  0  0  0  0  0  0  0  0  0  0  0
   -3.4782  -10.9352    8.7014 H   0  0  0  0  0  0  0  0  0  0  0  0
   -4.7350   -8.9521    9.4778 H   0  0  0  0  0  0  0  0  0  0  0  0
   -5.7156  -10.3753    9.8298 H   0  0  0  0  0  0  0  0  0  0  0  0
   -6.1056   -9.3694    8.4472 H   0  0  0  0  0  0  0  0  0  0  0  0
   -2.2093   -7.7832    6.3246 H   0  0  0  0  0  0  0  0  0  0  0  0
   -0.8830   -9.0505    5.0464 H   0  0  0  0  0  0  0  0  0  0  0  0
   -0.6918  -10.3563    6.1853 H   0  0  0  0  0  0  0  0  0  0  0  0
    0.3286   -7.4323    6.4297 H   0  0  0  0  0  0  0  0  0  0  0  0
    1.2742   -8.8978    6.4496 H   0  0  0  0  0  0  0  0  0  0  0  0
    3.4916   -6.4947    9.9498 H   0  0  0  0  0  0  0  0  0  0  0  0
    5.1542   -7.3844   11.5214 H   0  0  0  0  0  0  0  0  0  0  0  0
    5.4153   -8.7809   10.4727 H   0  0  0  0  0  0  0  0  0  0  0  0
    7.2197   -7.7885    9.3608 H   0  0  0  0  0  0  0  0  0  0  0  0
    6.4441   -6.2041    9.3212 H   0  0  0  0  0  0  0  0  0  0  0  0
    7.3616   -7.3887   12.9141 H   0  0  0  0  0  0  0  0  0  0  0  0
    8.8479   -4.6697   14.5670 H   0  0  0  0  0  0  0  0  0  0  0  0
    8.8520   -5.4857    9.6148 H   0  0  0  0  0  0  0  0  0  0  0  0
   -1.3514   -7.1134    8.2249 H   0  0  0  0  0  0  0  0  0  0  0  0
   -1.7073   -8.6597    8.9576 H   0  0  0  0  0  0  0  0  0  0  0  0
  1  2  1  0
  2  3  1  0
  2  4  1  0
  4  5  2  0
  4  6  2  0
  4  7  1  0
  7  8  1  0
  8  9  1  0
  9 10  1  0
 10 11  1  0
 11 12  2  0
 11 13  1  0
 13 14  2  0
 13 15  1  0
 15 16  1  0
 16 17  1  0
 17 18  1  0
 18 19  1  0
 19 20  2  0
 20 21  1  0
 21 22  1  0
 10 23  1  0
 23  7  1  0
 22 18  2  0
  1 24  1  0
  1 25  1  0
  1 26  1  0
  2 27  1  0
  3 28  1  0
  3 29  1  0
  3 30  1  0
  7 31  1  0
  8 32  1  0
  8 33  1  0
  9 34  1  0
  9 35  1  0
 15 36  1  0
 16 37  1  0
 16 38  1  0
 17 39  1  0
 17 40  1  0
 19 41  1  0
 20 42  1  0
 22 43  1  0
 23 44  1  0
 23 45  1  0
M  END
>  <Energy>  (1083) 
840.08841203182794

>  <compound_id>  (1083) 
6384

>  <target_id>  (1083) 
1

>  <reference_id>  (1083) 
30

>  <inspiration_ids>  (1083) 
[30, 76]

>  <energy_score>  (1083) 
739.8762506224383

>  <distance_score>  (1083) 
17.116800833425017

>  <path>  (1083) 
/opt/xchem-fragalysis-2/maxwin/BulkDock/SCRATCH/511018/C6384-P30/C6384-P30.minimised.mol

>  <scratch_subdir>  (1083) 
/opt/xchem-fragalysis-2/maxwin/BulkDock/SCRATCH/511018/C6384-P30

>  <fragmenstein_runtime>  (1083) 
24.81175136566162

>  <fragmenstein_outcome>  (1083) 
too moved

>  <fragmenstein_mode>  (1083) 
expansion

>  <fragmenstein_error>  (1083) 


$$$$
C6384-P76
     RDKit          3D

 45 46  0  0  0  0  0  0  0  0999 V2000
   -9.2562  -21.2886    9.4038 C   0  0  0  0  0  0  0  0  0  0  0  0
   -8.7307  -21.2550   10.8395 C   0  0  0  0  0  0  0  0  0  0  0  0
   -8.6700  -22.6532   11.5548 C   0  0  0  0  0  0  0  0  0  0  0  0
   -7.8448  -19.7968   11.6732 S   0  0  0  0  0  0  0  0  0  0  0  0
   -7.0366  -20.6633   12.5302 O   0  0  0  0  0  0  0  0  0  0  0  0
   -9.2163  -19.3261   12.0241 O   0  0  0  0  0  0  0  0  0  0  0  0
   -6.7429  -17.7910   12.0166 C   0  0  0  0  0  0  0  0  0  0  0  0
   -7.4215  -16.0679   11.6871 C   0  0  0  0  0  0  0  0  0  0  0  0
   -6.6439  -15.1146   12.7280 C   0  0  0  0  0  0  0  0  0  0  0  0
   -5.4933  -15.9718   12.5579 N   0  0  0  0  0  0  0  0  0  0  0  0
   -3.7707  -15.6218   13.0692 C   0  0  0  0  0  0  0  0  0  0  0  0
   -3.3046  -15.9625   14.2307 O   0  0  0  0  0  0  0  0  0  0  0  0
   -2.4942  -14.8586   11.6284 C   0  0  0  0  0  0  0  0  0  0  0  0
   -2.7596  -14.9242   10.4427 O   0  0  0  0  0  0  0  0  0  0  0  0
   -0.9090  -14.2245   12.3205 N   0  0  0  0  0  0  0  0  0  0  0  0
    0.2546  -13.7420   11.6837 C   0  0  0  0  0  0  0  0  0  0  0  0
    0.8829  -12.0189   11.4163 C   0  0  0  0  0  0  0  0  0  0  0  0
    2.4764  -11.1420   10.9338 C   0  0  0  0  0  0  0  0  0  0  0  0
    3.7399  -11.7737   10.4751 C   0  0  0  0  0  0  0  0  0  0  0  0
    4.7657  -10.8871   10.2095 C   0  0  0  0  0  0  0  0  0  0  0  0
    4.2061   -9.2850   10.1822 S   0  0  0  0  0  0  0  0  0  0  0  0
    2.5900   -9.8167   10.4739 C   0  0  0  0  0  0  0  0  0  0  0  0
   -6.6872  -16.8486   13.3139 C   0  0  0  0  0  0  0  0  0  0  0  0
   -8.6593  -21.7739    8.6527 H   0  0  0  0  0  0  0  0  0  0  0  0
   -9.5358  -20.2968    9.0418 H   0  0  0  0  0  0  0  0  0  0  0  0
  -10.1337  -21.9490    9.3363 H   0  0  0  0  0  0  0  0  0  0  0  0
   -9.6766  -21.0951   11.3447 H   0  0  0  0  0  0  0  0  0  0  0  0
   -9.0632  -22.5866   12.5777 H   0  0  0  0  0  0  0  0  0  0  0  0
   -9.3034  -23.3758   11.0267 H   0  0  0  0  0  0  0  0  0  0  0  0
   -7.6910  -23.1065   11.6559 H   0  0  0  0  0  0  0  0  0  0  0  0
   -6.0029  -17.8424   11.2235 H   0  0  0  0  0  0  0  0  0  0  0  0
   -7.0614  -15.7347   10.6989 H   0  0  0  0  0  0  0  0  0  0  0  0
   -8.5044  -15.9329   11.8462 H   0  0  0  0  0  0  0  0  0  0  0  0
   -7.2883  -14.8509   13.5843 H   0  0  0  0  0  0  0  0  0  0  0  0
   -6.4655  -14.1560   12.2341 H   0  0  0  0  0  0  0  0  0  0  0  0
   -0.9036  -14.3599   13.3561 H   0  0  0  0  0  0  0  0  0  0  0  0
    0.8578  -13.9376   12.5738 H   0  0  0  0  0  0  0  0  0  0  0  0
    0.5520  -14.6418   11.1593 H   0  0  0  0  0  0  0  0  0  0  0  0
    1.6605  -12.7161   11.0922 H   0  0  0  0  0  0  0  0  0  0  0  0
    0.7695  -11.6237   12.4051 H   0  0  0  0  0  0  0  0  0  0  0  0
    3.9016  -12.8424   10.4440 H   0  0  0  0  0  0  0  0  0  0  0  0
    5.7946  -11.1166    9.9721 H   0  0  0  0  0  0  0  0  0  0  0  0
    1.8174   -9.0698   10.3889 H   0  0  0  0  0  0  0  0  0  0  0  0
   -7.6555  -16.5953   13.8019 H   0  0  0  0  0  0  0  0  0  0  0  0
   -6.1213  -17.3864   14.0775 H   0  0  0  0  0  0  0  0  0  0  0  0
  1  2  1  0
  2  3  1  0
  2  4  1  0
  4  5  2  0
  4  6  2  0
  4  7  1  0
  7  8  1  0
  8  9  1  0
  9 10  1  0
 10 11  1  0
 11 12  2  0
 11 13  1  0
 13 14  2  0
 13 15  1  0
 15 16  1  0
 16 17  1  0
 17 18  1  0
 18 19  1  0
 19 20  2  0
 20 21  1  0
 21 22  1  0
 10 23  1  0
 23  7  1  0
 22 18  2  0
  1 24  1  0
  1 25  1  0
  1 26  1  0
  2 27  1  0
  3 28  1  0
  3 29  1  0
  3 30  1  0
  7 31  1  0
  8 32  1  0
  8 33  1  0
  9 34  1  0
  9 35  1  0
 15 36  1  0
 16 37  1  0
 16 38  1  0
 17 39  1  0
 17 40  1  0
 19 41  1  0
 20 42  1  0
 22 43  1  0
 23 44  1  0
 23 45  1  0
M  END
>  <Energy>  (1084) 
810.94513543863297

>  <compound_id>  (1084) 
6384

>  <target_id>  (1084) 
1

>  <reference_id>  (1084) 
76

>  <inspiration_ids>  (1084) 
[30, 76]

>  <energy_score>  (1084) 
710.7329740292453

>  <distance_score>  (1084) 
11.87619203029033

>  <path>  (1084) 
/opt/xchem-fragalysis-2/maxwin/BulkDock/SCRATCH/511018/C6384-P76/C6384-P76.minimised.mol

>  <scratch_subdir>  (1084) 
/opt/xchem-fragalysis-2/maxwin/BulkDock/SCRATCH/511018/C6384-P76

>  <fragmenstein_runtime>  (1084) 
19.043999910354614

>  <fragmenstein_outcome>  (1084) 
too moved

>  <fragmenstein_mode>  (1084) 
expansion

>  <fragmenstein_error>  (1084) 


$$$$
C6389-P30
     RDKit          3D

 27 28  0  0  0  0  0  0  0  0999 V2000
    1.2547   -8.9841    8.7508 O   0  0  0  0  0  0  0  0  0  0  0  0
    1.6250   -9.8709    9.4804 C   0  0  0  0  0  0  0  0  0  0  0  0
    3.1425   -9.9288    9.8818 C   0  0  0  0  0  0  0  0  0  0  0  0
    3.7510   -8.6250    9.8481 O   0  0  0  0  0  0  0  0  0  0  0  0
    5.0109   -8.5194   10.3658 C   0  0  0  0  0  0  0  0  0  0  0  0
    6.0414   -7.7652    9.7258 C   0  0  0  0  0  0  0  0  0  0  0  0
    7.2260   -7.7783   10.4309 C   0  0  0  0  0  0  0  0  0  0  0  0
    7.0696   -8.6112   11.9130 S   0  0  0  0  0  0  0  0  0  0  0  0
    5.4302   -8.9837   11.5934 C   0  0  0  0  0  0  0  0  0  0  0  0
    0.8690  -10.9006   10.1680 N   0  0  0  0  0  0  0  0  0  0  0  0
    0.7605  -12.1432    9.3022 C   0  0  0  0  0  0  0  0  0  0  0  0
   -0.0250  -13.2867    9.9563 C   0  0  0  0  0  0  0  0  0  0  0  0
   -0.9979  -12.5033   10.7594 C   0  0  0  0  0  0  0  0  0  0  0  0
   -0.6129  -11.1192   10.2772 C   0  0  0  0  0  0  0  0  0  0  0  0
    3.2137  -10.3640   10.8728 H   0  0  0  0  0  0  0  0  0  0  0  0
    3.6498  -10.5778    9.1593 H   0  0  0  0  0  0  0  0  0  0  0  0
    5.9234   -7.2710    8.7698 H   0  0  0  0  0  0  0  0  0  0  0  0
    8.1684   -7.3373   10.1406 H   0  0  0  0  0  0  0  0  0  0  0  0
    4.8712   -9.5234   12.3381 H   0  0  0  0  0  0  0  0  0  0  0  0
    1.7872  -12.4813    9.1085 H   0  0  0  0  0  0  0  0  0  0  0  0
    0.3732  -11.8853    8.3007 H   0  0  0  0  0  0  0  0  0  0  0  0
    0.6064  -13.9038   10.6013 H   0  0  0  0  0  0  0  0  0  0  0  0
   -0.4918  -13.9324    9.2069 H   0  0  0  0  0  0  0  0  0  0  0  0
   -0.8090  -12.6184   11.8322 H   0  0  0  0  0  0  0  0  0  0  0  0
   -2.0432  -12.7461   10.5526 H   0  0  0  0  0  0  0  0  0  0  0  0
   -0.9524  -10.3818   11.0169 H   0  0  0  0  0  0  0  0  0  0  0  0
   -1.1271  -10.8123    9.3502 H   0  0  0  0  0  0  0  0  0  0  0  0
  1  2  2  0
  2  3  1  0
  3  4  1  0
  4  5  1  0
  5  6  1  0
  6  7  2  0
  7  8  1  0
  8  9  1  0
  2 10  1  0
 10 11  1  0
 11 12  1  0
 12 13  1  0
 13 14  1  0
  9  5  2  0
 14 10  1  0
  3 15  1  0
  3 16  1  0
  6 17  1  0
  7 18  1  0
  9 19  1  0
 11 20  1  0
 11 21  1  0
 12 22  1  0
 12 23  1  0
 13 24  1  0
 13 25  1  0
 14 26  1  0
 14 27  1  0
M  END
>  <Energy>  (1085) 
87.749418124979442

>  <compound_id>  (1085) 
6389

>  <target_id>  (1085) 
1

>  <reference_id>  (1085) 
30

>  <inspiration_ids>  (1085) 
[30, 76]

>  <energy_score>  (1085) 
28.33294809254585

>  <distance_score>  (1085) 
16.64203222120358

>  <path>  (1085) 
/opt/xchem-fragalysis-2/maxwin/BulkDock/SCRATCH/511018/C6389-P30/C6389-P30.minimised.mol

>  <scratch_subdir>  (1085) 
/opt/xchem-fragalysis-2/maxwin/BulkDock/SCRATCH/511018/C6389-P30

>  <fragmenstein_runtime>  (1085) 
6.664341926574707

>  <fragmenstein_outcome>  (1085) 
too moved

>  <fragmenstein_mode>  (1085) 
expansion

>  <fragmenstein_error>  (1085) 


$$$$
C6389-P76
     RDKit          3D

 27 28  0  0  0  0  0  0  0  0999 V2000
    0.7053   -9.6354    9.6495 O   0  0  0  0  0  0  0  0  0  0  0  0
    1.4416  -10.5457    9.9343 C   0  0  0  0  0  0  0  0  0  0  0  0
    3.0162  -10.3764    9.8479 C   0  0  0  0  0  0  0  0  0  0  0  0
    3.4707   -9.0184    9.9631 O   0  0  0  0  0  0  0  0  0  0  0  0
    4.7537   -8.8309   10.4056 C   0  0  0  0  0  0  0  0  0  0  0  0
    5.6521   -7.8999    9.7969 C   0  0  0  0  0  0  0  0  0  0  0  0
    6.8769   -7.8471   10.4295 C   0  0  0  0  0  0  0  0  0  0  0  0
    6.9114   -8.8316   11.8253 S   0  0  0  0  0  0  0  0  0  0  0  0
    5.3098   -9.3768   11.5441 C   0  0  0  0  0  0  0  0  0  0  0  0
    1.1487  -11.8569   10.4732 N   0  0  0  0  0  0  0  0  0  0  0  0
    0.9342  -12.8564    9.3469 C   0  0  0  0  0  0  0  0  0  0  0  0
   -0.4683  -12.8765    8.7453 C   0  0  0  0  0  0  0  0  0  0  0  0
   -1.2720  -12.5548    9.9462 C   0  0  0  0  0  0  0  0  0  0  0  0
   -0.1485  -12.4574   10.9520 C   0  0  0  0  0  0  0  0  0  0  0  0
    3.4674  -11.0155   10.6120 H   0  0  0  0  0  0  0  0  0  0  0  0
    3.3217  -10.7491    8.8634 H   0  0  0  0  0  0  0  0  0  0  0  0
    5.4138   -7.3203    8.9144 H   0  0  0  0  0  0  0  0  0  0  0  0
    7.7420   -7.2644   10.1460 H   0  0  0  0  0  0  0  0  0  0  0  0
    4.8654  -10.0607   12.2493 H   0  0  0  0  0  0  0  0  0  0  0  0
    1.6506  -12.6169    8.5492 H   0  0  0  0  0  0  0  0  0  0  0  0
    1.2311  -13.8589    9.6913 H   0  0  0  0  0  0  0  0  0  0  0  0
   -0.7078  -13.8461    8.2997 H   0  0  0  0  0  0  0  0  0  0  0  0
   -0.5813  -12.1038    7.9774 H   0  0  0  0  0  0  0  0  0  0  0  0
   -1.7913  -11.5978    9.8294 H   0  0  0  0  0  0  0  0  0  0  0  0
   -2.0040  -13.3226   10.2107 H   0  0  0  0  0  0  0  0  0  0  0  0
   -0.4831  -11.7970   11.7624 H   0  0  0  0  0  0  0  0  0  0  0  0
    0.0561  -13.4225   11.4446 H   0  0  0  0  0  0  0  0  0  0  0  0
  1  2  2  0
  2  3  1  0
  3  4  1  0
  4  5  1  0
  5  6  1  0
  6  7  2  0
  7  8  1  0
  8  9  1  0
  2 10  1  0
 10 11  1  0
 11 12  1  0
 12 13  1  0
 13 14  1  0
  9  5  2  0
 14 10  1  0
  3 15  1  0
  3 16  1  0
  6 17  1  0
  7 18  1  0
  9 19  1  0
 11 20  1  0
 11 21  1  0
 12 22  1  0
 12 23  1  0
 13 24  1  0
 13 25  1  0
 14 26  1  0
 14 27  1  0
M  END
>  <Energy>  (1086) 
90.652879139780964

>  <compound_id>  (1086) 
6389

>  <target_id>  (1086) 
1

>  <reference_id>  (1086) 
76

>  <inspiration_ids>  (1086) 
[30, 76]

>  <energy_score>  (1086) 
31.23640910734747

>  <distance_score>  (1086) 
16.304237430954505

>  <path>  (1086) 
/opt/xchem-fragalysis-2/maxwin/BulkDock/SCRATCH/511018/C6389-P76/C6389-P76.minimised.mol

>  <scratch_subdir>  (1086) 
/opt/xchem-fragalysis-2/maxwin/BulkDock/SCRATCH/511018/C6389-P76

>  <fragmenstein_runtime>  (1086) 
8.353002786636353

>  <fragmenstein_outcome>  (1086) 
too moved

>  <fragmenstein_mode>  (1086) 
expansion

>  <fragmenstein_error>  (1086) 


$$$$
C6390-P30
     RDKit          3D

 44 45  0  0  0  0  0  0  0  0999 V2000
   -3.0424  -17.2501    9.1694 O   0  0  0  0  0  0  0  0  0  0  0  0
   -4.0317  -17.0990   10.4363 C   0  0  0  0  0  0  0  0  0  0  0  0
   -4.2740  -16.0451   10.4183 N   0  0  0  0  0  0  0  0  0  0  0  0
   -3.9467  -14.7117    9.7055 C   0  0  0  0  0  0  0  0  0  0  0  0
   -3.0843  -13.7532   10.5454 C   0  0  0  0  0  0  0  0  0  0  0  0
   -1.3207  -13.8049   10.2512 C   0  0  0  0  0  0  0  0  0  0  0  0
   -0.7400  -14.7196    9.1217 C   0  0  0  0  0  0  0  0  0  0  0  0
   -0.0258  -15.2297   10.2488 C   0  0  0  0  0  0  0  0  0  0  0  0
   -0.8329  -14.0499   11.0114 C   0  0  0  0  0  0  0  0  0  0  0  0
   -0.1374  -12.8140   11.2912 N   0  0  0  0  0  0  0  0  0  0  0  0
   -0.0945  -11.5223   10.7479 C   0  0  0  0  0  0  0  0  0  0  0  0
   -0.8353  -10.6122   11.1049 O   0  0  0  0  0  0  0  0  0  0  0  0
    1.0712  -11.2791    9.7098 C   0  0  0  0  0  0  0  0  0  0  0  0
    1.5097   -9.9098    9.5947 O   0  0  0  0  0  0  0  0  0  0  0  0
    2.8164   -9.5507    9.8544 C   0  0  0  0  0  0  0  0  0  0  0  0
    3.2016   -8.1648    9.9672 C   0  0  0  0  0  0  0  0  0  0  0  0
    4.5340   -7.9776   10.2798 C   0  0  0  0  0  0  0  0  0  0  0  0
    5.3604   -9.4666   10.3987 S   0  0  0  0  0  0  0  0  0  0  0  0
    3.9283  -10.3537   10.0043 C   0  0  0  0  0  0  0  0  0  0  0  0
   -4.2826  -18.3941   11.1537 C   0  0  0  0  0  0  0  0  0  0  0  0
   -5.5896  -18.4152   11.7555 O   0  0  0  0  0  0  0  0  0  0  0  0
   -3.1860  -18.5276   12.1935 C   0  0  0  0  0  0  0  0  0  0  0  0
   -3.3527  -17.5349   13.1198 F   0  0  0  0  0  0  0  0  0  0  0  0
   -3.3294  -19.6867   12.8794 F   0  0  0  0  0  0  0  0  0  0  0  0
   -4.7657  -15.2323   10.7082 H   0  0  0  0  0  0  0  0  0  0  0  0
   -3.4524  -14.9479    8.7605 H   0  0  0  0  0  0  0  0  0  0  0  0
   -4.8877  -14.2107    9.3993 H   0  0  0  0  0  0  0  0  0  0  0  0
   -3.3122  -13.8518   11.6150 H   0  0  0  0  0  0  0  0  0  0  0  0
   -3.3667  -12.7218   10.2874 H   0  0  0  0  0  0  0  0  0  0  0  0
   -1.4776  -12.9361    9.4972 H   0  0  0  0  0  0  0  0  0  0  0  0
   -1.4222  -15.4170    8.6457 H   0  0  0  0  0  0  0  0  0  0  0  0
   -0.1075  -14.1938    8.4001 H   0  0  0  0  0  0  0  0  0  0  0  0
   -0.3367  -16.2326   10.5567 H   0  0  0  0  0  0  0  0  0  0  0  0
    1.0572  -15.1020   10.2052 H   0  0  0  0  0  0  0  0  0  0  0  0
   -1.5159  -14.4087   11.9464 H   0  0  0  0  0  0  0  0  0  0  0  0
   -0.1358  -14.4092   11.8696 H   0  0  0  0  0  0  0  0  0  0  0  0
    1.8908  -11.9548    9.9486 H   0  0  0  0  0  0  0  0  0  0  0  0
    0.6779  -11.5691    8.7293 H   0  0  0  0  0  0  0  0  0  0  0  0
    2.5000   -7.3471    9.8600 H   0  0  0  0  0  0  0  0  0  0  0  0
    5.0531   -7.0436   10.4414 H   0  0  0  0  0  0  0  0  0  0  0  0
    4.0059  -11.4272    9.9327 H   0  0  0  0  0  0  0  0  0  0  0  0
   -4.2515  -19.2181   10.4355 H   0  0  0  0  0  0  0  0  0  0  0  0
   -5.4986  -18.0267   12.6451 H   0  0  0  0  0  0  0  0  0  0  0  0
   -2.1770  -18.4737   11.7761 H   0  0  0  0  0  0  0  0  0  0  0  0
  1  2  2  0
  2  3  1  0
  3  4  1  0
  4  5  1  0
  5  6  1  0
  6  7  1  0
  7  8  1  0
  8  9  1  0
  9 10  1  0
 10 11  1  0
 11 12  2  0
 11 13  1  0
 13 14  1  0
 14 15  1  0
 15 16  1  0
 16 17  2  0
 17 18  1  0
 18 19  1  0
  2 20  1  0
 20 21  1  0
 20 22  1  0
 22 23  1  0
 22 24  1  0
 10  6  1  0
 19 15  2  0
  3 25  1  0
  4 26  1  0
  4 27  1  0
  5 28  1  0
  5 29  1  0
  6 30  1  0
  7 31  1  0
  7 32  1  0
  8 33  1  0
  8 34  1  0
  9 35  1  0
  9 36  1  0
 13 37  1  0
 13 38  1  0
 16 39  1  0
 17 40  1  0
 19 41  1  0
 20 42  1  0
 21 43  1  0
 22 44  1  0
M  END
>  <Energy>  (1087) 
827.65473591077807

>  <compound_id>  (1087) 
6390

>  <target_id>  (1087) 
1

>  <reference_id>  (1087) 
30

>  <inspiration_ids>  (1087) 
[30, 76]

>  <energy_score>  (1087) 
714.3269371333768

>  <distance_score>  (1087) 
14.288902768086716

>  <path>  (1087) 
/opt/xchem-fragalysis-2/maxwin/BulkDock/SCRATCH/511018/C6390-P30/C6390-P30.minimised.mol

>  <scratch_subdir>  (1087) 
/opt/xchem-fragalysis-2/maxwin/BulkDock/SCRATCH/511018/C6390-P30

>  <fragmenstein_runtime>  (1087) 
21.464677810668945

>  <fragmenstein_outcome>  (1087) 
too moved

>  <fragmenstein_mode>  (1087) 
expansion

>  <fragmenstein_error>  (1087) 


$$$$
C6390-P76
     RDKit          3D

 44 45  0  0  0  0  0  0  0  0999 V2000
   -1.6664  -17.6014   10.1117 O   0  0  0  0  0  0  0  0  0  0  0  0
   -2.5826  -17.7451   10.8692 C   0  0  0  0  0  0  0  0  0  0  0  0
   -3.4280  -16.7771   11.5122 N   0  0  0  0  0  0  0  0  0  0  0  0
   -3.5013  -15.3414   11.3739 C   0  0  0  0  0  0  0  0  0  0  0  0
   -2.2220  -14.4856   11.3869 C   0  0  0  0  0  0  0  0  0  0  0  0
   -1.1199  -14.4460   10.0196 C   0  0  0  0  0  0  0  0  0  0  0  0
   -2.2359  -14.6289    8.9103 C   0  0  0  0  0  0  0  0  0  0  0  0
   -1.1749  -14.1382    8.0908 C   0  0  0  0  0  0  0  0  0  0  0  0
   -0.4573  -13.9794    9.5216 C   0  0  0  0  0  0  0  0  0  0  0  0
   -0.5892  -12.6553   10.2036 N   0  0  0  0  0  0  0  0  0  0  0  0
    0.3175  -11.7590    9.5508 C   0  0  0  0  0  0  0  0  0  0  0  0
   -0.0360  -11.0671    8.5957 O   0  0  0  0  0  0  0  0  0  0  0  0
    1.7677  -11.5705   10.1470 C   0  0  0  0  0  0  0  0  0  0  0  0
    2.5032  -10.4989    9.5021 O   0  0  0  0  0  0  0  0  0  0  0  0
    3.6247  -10.0119   10.1338 C   0  0  0  0  0  0  0  0  0  0  0  0
    3.9226   -8.6091   10.2259 C   0  0  0  0  0  0  0  0  0  0  0  0
    5.1251   -8.3438   10.8531 C   0  0  0  0  0  0  0  0  0  0  0  0
    5.9340   -9.7833   11.2965 S   0  0  0  0  0  0  0  0  0  0  0  0
    4.6851  -10.7559   10.6068 C   0  0  0  0  0  0  0  0  0  0  0  0
   -3.0530  -19.1691   11.3073 C   0  0  0  0  0  0  0  0  0  0  0  0
   -4.4625  -19.1991   11.6281 O   0  0  0  0  0  0  0  0  0  0  0  0
   -2.6556  -20.1443   10.1994 C   0  0  0  0  0  0  0  0  0  0  0  0
   -3.4149  -19.9338    9.0908 F   0  0  0  0  0  0  0  0  0  0  0  0
   -2.8911  -21.4214   10.5928 F   0  0  0  0  0  0  0  0  0  0  0  0
   -4.1638  -17.2683   12.0283 H   0  0  0  0  0  0  0  0  0  0  0  0
   -4.1066  -15.0170   12.2300 H   0  0  0  0  0  0  0  0  0  0  0  0
   -4.1190  -15.1413   10.4948 H   0  0  0  0  0  0  0  0  0  0  0  0
   -2.5542  -13.4447   11.5091 H   0  0  0  0  0  0  0  0  0  0  0  0
   -1.6106  -14.7027   12.2705 H   0  0  0  0  0  0  0  0  0  0  0  0
   -0.5949  -15.4324   10.5226 H   0  0  0  0  0  0  0  0  0  0  0  0
   -3.0791  -13.9351    8.9758 H   0  0  0  0  0  0  0  0  0  0  0  0
   -2.5294  -15.6578    8.7012 H   0  0  0  0  0  0  0  0  0  0  0  0
   -1.3801  -13.2054    7.5584 H   0  0  0  0  0  0  0  0  0  0  0  0
   -0.7211  -14.9093    7.4581 H   0  0  0  0  0  0  0  0  0  0  0  0
    0.3623  -13.6233    8.7789 H   0  0  0  0  0  0  0  0  0  0  0  0
    0.6560  -14.4619    9.7999 H   0  0  0  0  0  0  0  0  0  0  0  0
    1.6271  -11.3196   11.1973 H   0  0  0  0  0  0  0  0  0  0  0  0
    2.3176  -12.5065   10.0238 H   0  0  0  0  0  0  0  0  0  0  0  0
    3.2602   -7.8351    9.8592 H   0  0  0  0  0  0  0  0  0  0  0  0
    5.5656   -7.3796   11.0608 H   0  0  0  0  0  0  0  0  0  0  0  0
    4.8038  -11.8286   10.5921 H   0  0  0  0  0  0  0  0  0  0  0  0
   -2.5167  -19.4254   12.2274 H   0  0  0  0  0  0  0  0  0  0  0  0
   -4.7890  -20.1230   11.4562 H   0  0  0  0  0  0  0  0  0  0  0  0
   -1.6014  -20.0724    9.9174 H   0  0  0  0  0  0  0  0  0  0  0  0
  1  2  2  0
  2  3  1  0
  3  4  1  0
  4  5  1  0
  5  6  1  0
  6  7  1  0
  7  8  1  0
  8  9  1  0
  9 10  1  0
 10 11  1  0
 11 12  2  0
 11 13  1  0
 13 14  1  0
 14 15  1  0
 15 16  1  0
 16 17  2  0
 17 18  1  0
 18 19  1  0
  2 20  1  0
 20 21  1  0
 20 22  1  0
 22 23  1  0
 22 24  1  0
 10  6  1  0
 19 15  2  0
  3 25  1  0
  4 26  1  0
  4 27  1  0
  5 28  1  0
  5 29  1  0
  6 30  1  0
  7 31  1  0
  7 32  1  0
  8 33  1  0
  8 34  1  0
  9 35  1  0
  9 36  1  0
 13 37  1  0
 13 38  1  0
 16 39  1  0
 17 40  1  0
 19 41  1  0
 20 42  1  0
 21 43  1  0
 22 44  1  0
M  END
>  <Energy>  (1088) 
623.79008646928128

>  <compound_id>  (1088) 
6390

>  <target_id>  (1088) 
1

>  <reference_id>  (1088) 
76

>  <inspiration_ids>  (1088) 
[30, 76]

>  <energy_score>  (1088) 
510.46228769189105

>  <distance_score>  (1088) 
14.156286115325047

>  <path>  (1088) 
/opt/xchem-fragalysis-2/maxwin/BulkDock/SCRATCH/511018/C6390-P76/C6390-P76.minimised.mol

>  <scratch_subdir>  (1088) 
/opt/xchem-fragalysis-2/maxwin/BulkDock/SCRATCH/511018/C6390-P76

>  <fragmenstein_runtime>  (1088) 
26.149983167648315

>  <fragmenstein_outcome>  (1088) 
too moved

>  <fragmenstein_mode>  (1088) 
expansion

>  <fragmenstein_error>  (1088) 


$$$$
C6392-P30
     RDKit          3D

 33 34  0  0  0  0  0  0  0  0999 V2000
   -4.8975  -19.0532   11.2967 C   0  0  0  0  0  0  0  0  0  0  0  0
   -6.3142  -19.0642   11.4951 O   0  0  0  0  0  0  0  0  0  0  0  0
   -6.9145  -20.2786   11.4723 C   0  0  0  0  0  0  0  0  0  0  0  0
   -6.2528  -21.2821   11.2054 O   0  0  0  0  0  0  0  0  0  0  0  0
   -8.5235  -20.3386   11.9376 C   0  0  0  0  0  0  0  0  0  0  0  0
   -9.2832  -21.6757   12.2423 C   0  0  0  0  0  0  0  0  0  0  0  0
  -10.2535  -21.4186   13.3179 C   0  0  0  0  0  0  0  0  0  0  0  0
  -10.2894  -19.8494   13.4803 C   0  0  0  0  0  0  0  0  0  0  0  0
   -9.2267  -18.6857   12.3500 N   0  0  0  0  0  0  0  0  0  0  0  0
   -8.3763  -17.2830   13.1249 C   0  0  0  0  0  0  0  0  0  0  0  0
   -7.2627  -17.2303   13.5809 O   0  0  0  0  0  0  0  0  0  0  0  0
   -9.0832  -15.8345   13.2751 C   0  0  0  0  0  0  0  0  0  0  0  0
   -8.3100  -14.7198   12.5885 O   0  0  0  0  0  0  0  0  0  0  0  0
   -7.0698  -14.2343   13.0480 C   0  0  0  0  0  0  0  0  0  0  0  0
   -6.2583  -13.3305   12.2479 C   0  0  0  0  0  0  0  0  0  0  0  0
   -5.0767  -12.9244   12.8463 C   0  0  0  0  0  0  0  0  0  0  0  0
   -4.9086  -13.6045   14.4034 S   0  0  0  0  0  0  0  0  0  0  0  0
   -6.4277  -14.4380   14.2579 C   0  0  0  0  0  0  0  0  0  0  0  0
   -4.6607  -19.3294   10.2652 H   0  0  0  0  0  0  0  0  0  0  0  0
   -4.5411  -18.0351   11.4759 H   0  0  0  0  0  0  0  0  0  0  0  0
   -4.3975  -19.7226   12.0035 H   0  0  0  0  0  0  0  0  0  0  0  0
   -7.7805  -20.6062   12.7250 H   0  0  0  0  0  0  0  0  0  0  0  0
   -9.8294  -22.1165   11.4103 H   0  0  0  0  0  0  0  0  0  0  0  0
   -8.5868  -22.4459   12.6049 H   0  0  0  0  0  0  0  0  0  0  0  0
  -11.1949  -21.9160   13.1106 H   0  0  0  0  0  0  0  0  0  0  0  0
   -9.8835  -21.8910   14.2401 H   0  0  0  0  0  0  0  0  0  0  0  0
  -10.2144  -19.8109   14.5877 H   0  0  0  0  0  0  0  0  0  0  0  0
  -11.1967  -19.3220   13.7138 H   0  0  0  0  0  0  0  0  0  0  0  0
   -8.9014  -15.5269   14.2901 H   0  0  0  0  0  0  0  0  0  0  0  0
  -10.1558  -15.7817   13.0645 H   0  0  0  0  0  0  0  0  0  0  0  0
   -6.5528  -13.0099   11.2560 H   0  0  0  0  0  0  0  0  0  0  0  0
   -4.3198  -12.2710   12.4352 H   0  0  0  0  0  0  0  0  0  0  0  0
   -6.7516  -15.0485   15.0870 H   0  0  0  0  0  0  0  0  0  0  0  0
  1  2  1  0
  2  3  1  0
  3  4  2  0
  3  5  1  0
  5  6  1  0
  6  7  1  0
  7  8  1  0
  8  9  1  0
  9 10  1  0
 10 11  2  0
 10 12  1  0
 12 13  1  0
 13 14  1  0
 14 15  1  0
 15 16  2  0
 16 17  1  0
 17 18  1  0
  9  5  1  0
 18 14  2  0
  1 19  1  0
  1 20  1  0
  1 21  1  0
  5 22  1  0
  6 23  1  0
  6 24  1  0
  7 25  1  0
  7 26  1  0
  8 27  1  0
  8 28  1  0
 12 29  1  0
 12 30  1  0
 15 31  1  0
 16 32  1  0
 18 33  1  0
M  END
>  <Energy>  (1089) 
363.78817448819404

>  <compound_id>  (1089) 
6392

>  <target_id>  (1089) 
1

>  <reference_id>  (1089) 
30

>  <inspiration_ids>  (1089) 
[30, 76]

>  <energy_score>  (1089) 
249.68489906309173

>  <distance_score>  (1089) 
14.415541373652454

>  <path>  (1089) 
/opt/xchem-fragalysis-2/maxwin/BulkDock/SCRATCH/511018/C6392-P30/C6392-P30.minimised.mol

>  <scratch_subdir>  (1089) 
/opt/xchem-fragalysis-2/maxwin/BulkDock/SCRATCH/511018/C6392-P30

>  <fragmenstein_runtime>  (1089) 
8.892180919647217

>  <fragmenstein_outcome>  (1089) 
too moved

>  <fragmenstein_mode>  (1089) 
expansion

>  <fragmenstein_error>  (1089) 


$$$$
C6392-P76
     RDKit          3D

 33 34  0  0  0  0  0  0  0  0999 V2000
    1.7274  -11.4708   24.4679 C   0  0  0  0  0  0  0  0  0  0  0  0
    2.5062  -12.5902   24.0432 O   0  0  0  0  0  0  0  0  0  0  0  0
    1.9282  -13.7960   24.3037 C   0  0  0  0  0  0  0  0  0  0  0  0
    0.7909  -13.9302   24.7449 O   0  0  0  0  0  0  0  0  0  0  0  0
    2.8766  -14.9874   24.0478 C   0  0  0  0  0  0  0  0  0  0  0  0
    2.1295  -16.0361   23.2296 C   0  0  0  0  0  0  0  0  0  0  0  0
    3.2766  -16.9336   22.9313 C   0  0  0  0  0  0  0  0  0  0  0  0
    4.4422  -16.0832   23.4537 C   0  0  0  0  0  0  0  0  0  0  0  0
    4.1806  -14.5772   23.3489 N   0  0  0  0  0  0  0  0  0  0  0  0
    5.3200  -13.8327   23.8393 C   0  0  0  0  0  0  0  0  0  0  0  0
    5.5697  -13.4237   24.9472 O   0  0  0  0  0  0  0  0  0  0  0  0
    6.3118  -13.4289   22.6915 C   0  0  0  0  0  0  0  0  0  0  0  0
    6.2303  -12.0221   22.4008 O   0  0  0  0  0  0  0  0  0  0  0  0
    7.3268  -11.4524   21.8112 C   0  0  0  0  0  0  0  0  0  0  0  0
    7.2281  -10.4496   20.7997 C   0  0  0  0  0  0  0  0  0  0  0  0
    8.4589  -10.0086   20.3689 C   0  0  0  0  0  0  0  0  0  0  0  0
    9.7399  -10.7190   21.2396 S   0  0  0  0  0  0  0  0  0  0  0  0
    8.6430  -11.6553   22.1734 C   0  0  0  0  0  0  0  0  0  0  0  0
    2.3067  -10.5636   24.2748 H   0  0  0  0  0  0  0  0  0  0  0  0
    1.5232  -11.5272   25.5418 H   0  0  0  0  0  0  0  0  0  0  0  0
    0.7955  -11.4153   23.8970 H   0  0  0  0  0  0  0  0  0  0  0  0
    3.1025  -15.3094   25.0814 H   0  0  0  0  0  0  0  0  0  0  0  0
    1.3333  -16.5283   23.7957 H   0  0  0  0  0  0  0  0  0  0  0  0
    1.6997  -15.6196   22.3137 H   0  0  0  0  0  0  0  0  0  0  0  0
    3.3661  -17.1303   21.8659 H   0  0  0  0  0  0  0  0  0  0  0  0
    3.2255  -17.8935   23.4538 H   0  0  0  0  0  0  0  0  0  0  0  0
    5.3345  -16.2891   22.8463 H   0  0  0  0  0  0  0  0  0  0  0  0
    4.7517  -16.3563   24.4770 H   0  0  0  0  0  0  0  0  0  0  0  0
    7.3061  -13.7267   23.0429 H   0  0  0  0  0  0  0  0  0  0  0  0
    6.1024  -13.9887   21.7791 H   0  0  0  0  0  0  0  0  0  0  0  0
    6.3016  -10.0975   20.3720 H   0  0  0  0  0  0  0  0  0  0  0  0
    8.6525   -9.2942   19.5910 H   0  0  0  0  0  0  0  0  0  0  0  0
    9.0365  -12.2988   22.9472 H   0  0  0  0  0  0  0  0  0  0  0  0
  1  2  1  0
  2  3  1  0
  3  4  2  0
  3  5  1  0
  5  6  1  0
  6  7  1  0
  7  8  1  0
  8  9  1  0
  9 10  1  0
 10 11  2  0
 10 12  1  0
 12 13  1  0
 13 14  1  0
 14 15  1  0
 15 16  2  0
 16 17  1  0
 17 18  1  0
  9  5  1  0
 18 14  2  0
  1 19  1  0
  1 20  1  0
  1 21  1  0
  5 22  1  0
  6 23  1  0
  6 24  1  0
  7 25  1  0
  7 26  1  0
  8 27  1  0
  8 28  1  0
 12 29  1  0
 12 30  1  0
 15 31  1  0
 16 32  1  0
 18 33  1  0
M  END
>  <Energy>  (1090) 
114.98449269858972

>  <compound_id>  (1090) 
6392

>  <target_id>  (1090) 
1

>  <reference_id>  (1090) 
76

>  <inspiration_ids>  (1090) 
[30, 76]

>  <energy_score>  (1090) 
0.881217273488744

>  <distance_score>  (1090) 
18.531391861307174

>  <path>  (1090) 
/opt/xchem-fragalysis-2/maxwin/BulkDock/SCRATCH/511018/C6392-P76/C6392-P76.minimised.mol

>  <scratch_subdir>  (1090) 
/opt/xchem-fragalysis-2/maxwin/BulkDock/SCRATCH/511018/C6392-P76

>  <fragmenstein_runtime>  (1090) 
18.79272699356079

>  <fragmenstein_outcome>  (1090) 
too moved

>  <fragmenstein_mode>  (1090) 
expansion

>  <fragmenstein_error>  (1090) 


$$$$
C6395-P30
     RDKit          3D

 49 50  0  0  0  0  0  0  0  0999 V2000
  -10.3991  -23.1857   12.1070 C   0  0  0  0  0  0  0  0  0  0  0  0
  -10.8817  -24.6145   12.2642 C   0  0  0  0  0  0  0  0  0  0  0  0
  -12.1757  -24.8445   11.4648 C   0  0  0  0  0  0  0  0  0  0  0  0
   -9.8174  -25.6056   11.7727 C   0  0  0  0  0  0  0  0  0  0  0  0
  -11.1941  -24.7811   13.7471 C   0  0  0  0  0  0  0  0  0  0  0  0
   -9.9667  -24.5530   14.6198 C   0  0  0  0  0  0  0  0  0  0  0  0
   -9.3833  -25.5498   14.9591 O   0  0  0  0  0  0  0  0  0  0  0  0
   -9.6813  -23.1164   14.8960 N   0  0  0  0  0  0  0  0  0  0  0  0
   -8.3693  -22.3587   15.6940 C   0  0  0  0  0  0  0  0  0  0  0  0
   -6.6494  -23.0481   17.0170 C   0  0  0  0  0  0  0  0  0  0  0  0
   -7.5631  -24.6111   17.0414 C   0  0  0  0  0  0  0  0  0  0  0  0
   -7.0723  -23.5757   16.1400 C   0  0  0  0  0  0  0  0  0  0  0  0
   -5.6530  -22.7269   17.2062 C   0  0  0  0  0  0  0  0  0  0  0  0
   -5.2381  -21.5433   16.9616 N   0  0  0  0  0  0  0  0  0  0  0  0
   -3.4965  -21.4368   17.4318 C   0  0  0  0  0  0  0  0  0  0  0  0
   -2.5150  -21.6744   16.7032 O   0  0  0  0  0  0  0  0  0  0  0  0
   -3.0061  -20.8588   18.8850 C   0  0  0  0  0  0  0  0  0  0  0  0
   -2.6006  -19.4438   18.8387 O   0  0  0  0  0  0  0  0  0  0  0  0
   -1.2770  -19.0789   19.0177 C   0  0  0  0  0  0  0  0  0  0  0  0
   -0.0743  -19.7314   18.6008 C   0  0  0  0  0  0  0  0  0  0  0  0
    1.0788  -19.0374   18.9440 C   0  0  0  0  0  0  0  0  0  0  0  0
    0.7264  -17.5412   19.6889 S   0  0  0  0  0  0  0  0  0  0  0  0
   -0.9649  -17.8562   19.5964 C   0  0  0  0  0  0  0  0  0  0  0  0
   -9.3836  -23.0399   12.4802 H   0  0  0  0  0  0  0  0  0  0  0  0
  -10.4244  -22.8526   11.0873 H   0  0  0  0  0  0  0  0  0  0  0  0
  -11.0497  -22.5077   12.6569 H   0  0  0  0  0  0  0  0  0  0  0  0
  -12.5373  -25.8716   11.5905 H   0  0  0  0  0  0  0  0  0  0  0  0
  -12.9754  -24.1726   11.7949 H   0  0  0  0  0  0  0  0  0  0  0  0
  -12.0199  -24.6772   10.3938 H   0  0  0  0  0  0  0  0  0  0  0  0
  -10.1152  -26.6387   11.9836 H   0  0  0  0  0  0  0  0  0  0  0  0
   -9.6659  -25.5187   10.6914 H   0  0  0  0  0  0  0  0  0  0  0  0
   -8.8464  -25.4341   12.2481 H   0  0  0  0  0  0  0  0  0  0  0  0
  -11.5691  -25.7925   13.9536 H   0  0  0  0  0  0  0  0  0  0  0  0
  -12.0056  -24.1087   14.0216 H   0  0  0  0  0  0  0  0  0  0  0  0
  -10.3323  -22.5447   14.3855 H   0  0  0  0  0  0  0  0  0  0  0  0
   -9.1726  -21.7981   16.2874 H   0  0  0  0  0  0  0  0  0  0  0  0
   -8.0285  -21.9681   14.6770 H   0  0  0  0  0  0  0  0  0  0  0  0
   -6.8237  -23.5637   18.1353 H   0  0  0  0  0  0  0  0  0  0  0  0
   -8.4939  -25.1350   16.7328 H   0  0  0  0  0  0  0  0  0  0  0  0
   -6.8674  -25.7903   16.5860 H   0  0  0  0  0  0  0  0  0  0  0  0
   -8.2045  -23.8700   16.0147 H   0  0  0  0  0  0  0  0  0  0  0  0
   -7.0609  -23.1412   15.1295 H   0  0  0  0  0  0  0  0  0  0  0  0
   -4.8092  -22.8599   17.8034 H   0  0  0  0  0  0  0  0  0  0  0  0
   -4.7562  -22.6859   16.4497 H   0  0  0  0  0  0  0  0  0  0  0  0
   -2.1600  -21.4834   19.1987 H   0  0  0  0  0  0  0  0  0  0  0  0
   -3.7264  -20.9171   19.6987 H   0  0  0  0  0  0  0  0  0  0  0  0
   -0.0524  -20.6737   18.0634 H   0  0  0  0  0  0  0  0  0  0  0  0
    2.1031  -19.3281   18.7490 H   0  0  0  0  0  0  0  0  0  0  0  0
   -1.6625  -17.1244   19.9762 H   0  0  0  0  0  0  0  0  0  0  0  0
  1  2  1  0
  2  3  1  0
  2  4  1  0
  2  5  1  0
  5  6  1  0
  6  7  2  0
  6  8  1  0
  8  9  1  0
  9 10  1  0
 10 11  1  0
 11 12  1  0
 12 13  1  0
 13 14  1  0
 14 15  1  0
 15 16  2  0
 15 17  1  0
 17 18  1  0
 18 19  1  0
 19 20  1  0
 20 21  2  0
 21 22  1  0
 22 23  1  0
 14 10  1  0
 23 19  2  0
  1 24  1  0
  1 25  1  0
  1 26  1  0
  3 27  1  0
  3 28  1  0
  3 29  1  0
  4 30  1  0
  4 31  1  0
  4 32  1  0
  5 33  1  0
  5 34  1  0
  8 35  1  0
  9 36  1  0
  9 37  1  0
 10 38  1  0
 11 39  1  0
 11 40  1  0
 12 41  1  0
 12 42  1  0
 13 43  1  0
 13 44  1  0
 17 45  1  0
 17 46  1  0
 20 47  1  0
 21 48  1  0
 23 49  1  0
M  END
>  <Energy>  (1091) 
1574.5654511326979

>  <compound_id>  (1091) 
6395

>  <target_id>  (1091) 
1

>  <reference_id>  (1091) 
30

>  <inspiration_ids>  (1091) 
[30, 76]

>  <energy_score>  (1091) 
1469.7423241322763

>  <distance_score>  (1091) 
13.799646762507463

>  <path>  (1091) 
/opt/xchem-fragalysis-2/maxwin/BulkDock/SCRATCH/511018/C6395-P30/C6395-P30.minimised.mol

>  <scratch_subdir>  (1091) 
/opt/xchem-fragalysis-2/maxwin/BulkDock/SCRATCH/511018/C6395-P30

>  <fragmenstein_runtime>  (1091) 
17.096524953842163

>  <fragmenstein_outcome>  (1091) 
too moved

>  <fragmenstein_mode>  (1091) 
expansion

>  <fragmenstein_error>  (1091) 


$$$$
C6395-P76
     RDKit          3D

 49 50  0  0  0  0  0  0  0  0999 V2000
    0.3932  -21.1870   13.9097 C   0  0  0  0  0  0  0  0  0  0  0  0
    1.2017  -22.2989   14.6080 C   0  0  0  0  0  0  0  0  0  0  0  0
    0.3207  -22.8672   15.7429 C   0  0  0  0  0  0  0  0  0  0  0  0
    1.4916  -23.4352   13.6158 C   0  0  0  0  0  0  0  0  0  0  0  0
    2.5300  -21.7585   15.2671 C   0  0  0  0  0  0  0  0  0  0  0  0
    3.7797  -21.3445   14.4148 C   0  0  0  0  0  0  0  0  0  0  0  0
    3.8103  -21.5103   13.2306 O   0  0  0  0  0  0  0  0  0  0  0  0
    4.7472  -20.7143   15.3135 N   0  0  0  0  0  0  0  0  0  0  0  0
    6.0190  -19.9980   15.0279 C   0  0  0  0  0  0  0  0  0  0  0  0
    5.8728  -18.2052   14.5209 C   0  0  0  0  0  0  0  0  0  0  0  0
    5.5534  -18.2957   13.0077 C   0  0  0  0  0  0  0  0  0  0  0  0
    4.3262  -18.1215   13.6830 C   0  0  0  0  0  0  0  0  0  0  0  0
    5.3290  -17.8730   15.2372 C   0  0  0  0  0  0  0  0  0  0  0  0
    5.3848  -16.4837   15.2508 N   0  0  0  0  0  0  0  0  0  0  0  0
    4.4886  -15.9324   16.5422 C   0  0  0  0  0  0  0  0  0  0  0  0
    3.3168  -15.7607   16.2212 O   0  0  0  0  0  0  0  0  0  0  0  0
    4.7415  -15.2810   18.4034 C   0  0  0  0  0  0  0  0  0  0  0  0
    5.2123  -13.9009   19.1186 O   0  0  0  0  0  0  0  0  0  0  0  0
    5.8046  -13.4510   20.3409 C   0  0  0  0  0  0  0  0  0  0  0  0
    6.0459  -12.0363   20.5873 C   0  0  0  0  0  0  0  0  0  0  0  0
    6.7884  -11.7421   21.7075 C   0  0  0  0  0  0  0  0  0  0  0  0
    7.2822  -13.1675   22.4906 S   0  0  0  0  0  0  0  0  0  0  0  0
    6.5259  -14.1594   21.2992 C   0  0  0  0  0  0  0  0  0  0  0  0
    0.1386  -20.3852   14.6116 H   0  0  0  0  0  0  0  0  0  0  0  0
    0.9706  -20.7417   13.0924 H   0  0  0  0  0  0  0  0  0  0  0  0
   -0.5407  -21.5758   13.4886 H   0  0  0  0  0  0  0  0  0  0  0  0
    0.0925  -22.0980   16.4895 H   0  0  0  0  0  0  0  0  0  0  0  0
    0.8210  -23.6955   16.2574 H   0  0  0  0  0  0  0  0  0  0  0  0
   -0.6312  -23.2460   15.3538 H   0  0  0  0  0  0  0  0  0  0  0  0
    1.9868  -23.0722   12.7105 H   0  0  0  0  0  0  0  0  0  0  0  0
    0.5639  -23.9234   13.2949 H   0  0  0  0  0  0  0  0  0  0  0  0
    2.1295  -24.2021   14.0688 H   0  0  0  0  0  0  0  0  0  0  0  0
    2.2596  -20.8882   15.8818 H   0  0  0  0  0  0  0  0  0  0  0  0
    2.9036  -22.5306   15.9549 H   0  0  0  0  0  0  0  0  0  0  0  0
    4.3544  -20.6754   16.2498 H   0  0  0  0  0  0  0  0  0  0  0  0
    6.6779  -20.0623   15.9003 H   0  0  0  0  0  0  0  0  0  0  0  0
    6.5020  -20.5049   14.1850 H   0  0  0  0  0  0  0  0  0  0  0  0
    7.0308  -18.0313   14.4338 H   0  0  0  0  0  0  0  0  0  0  0  0
    5.7111  -19.2607   12.5287 H   0  0  0  0  0  0  0  0  0  0  0  0
    5.8470  -17.4548   12.3898 H   0  0  0  0  0  0  0  0  0  0  0  0
    3.8227  -17.2523   13.2930 H   0  0  0  0  0  0  0  0  0  0  0  0
    3.6712  -18.9891   13.7361 H   0  0  0  0  0  0  0  0  0  0  0  0
    4.6520  -18.6428   15.8182 H   0  0  0  0  0  0  0  0  0  0  0  0
    4.2648  -17.6259   15.5769 H   0  0  0  0  0  0  0  0  0  0  0  0
    5.1662  -16.0717   19.0284 H   0  0  0  0  0  0  0  0  0  0  0  0
    3.6533  -15.1416   18.5315 H   0  0  0  0  0  0  0  0  0  0  0  0
    5.8200  -11.2709   19.8713 H   0  0  0  0  0  0  0  0  0  0  0  0
    7.1028  -10.7710   22.0610 H   0  0  0  0  0  0  0  0  0  0  0  0
    6.7237  -15.2189   21.3344 H   0  0  0  0  0  0  0  0  0  0  0  0
  1  2  1  0
  2  3  1  0
  2  4  1  0
  2  5  1  0
  5  6  1  0
  6  7  2  0
  6  8  1  0
  8  9  1  0
  9 10  1  0
 10 11  1  0
 11 12  1  0
 12 13  1  0
 13 14  1  0
 14 15  1  0
 15 16  2  0
 15 17  1  0
 17 18  1  0
 18 19  1  0
 19 20  1  0
 20 21  2  0
 21 22  1  0
 22 23  1  0
 14 10  1  0
 23 19  2  0
  1 24  1  0
  1 25  1  0
  1 26  1  0
  3 27  1  0
  3 28  1  0
  3 29  1  0
  4 30  1  0
  4 31  1  0
  4 32  1  0
  5 33  1  0
  5 34  1  0
  8 35  1  0
  9 36  1  0
  9 37  1  0
 10 38  1  0
 11 39  1  0
 11 40  1  0
 12 41  1  0
 12 42  1  0
 13 43  1  0
 13 44  1  0
 17 45  1  0
 17 46  1  0
 20 47  1  0
 21 48  1  0
 23 49  1  0
M  END
>  <Energy>  (1092) 
879.73161166514262

>  <compound_id>  (1092) 
6395

>  <target_id>  (1092) 
1

>  <reference_id>  (1092) 
76

>  <inspiration_ids>  (1092) 
[30, 76]

>  <energy_score>  (1092) 
774.9084846647122

>  <distance_score>  (1092) 
16.07866060966797

>  <path>  (1092) 
/opt/xchem-fragalysis-2/maxwin/BulkDock/SCRATCH/511018/C6395-P76/C6395-P76.minimised.mol

>  <scratch_subdir>  (1092) 
/opt/xchem-fragalysis-2/maxwin/BulkDock/SCRATCH/511018/C6395-P76

>  <fragmenstein_runtime>  (1092) 
20.159918785095215

>  <fragmenstein_outcome>  (1092) 
too moved

>  <fragmenstein_mode>  (1092) 
expansion

>  <fragmenstein_error>  (1092) 


$$$$
C6397-P30
     RDKit          3D

 44 45  0  0  0  0  0  0  0  0999 V2000
   -3.0990  -23.9068    8.1871 C   0  0  0  0  0  0  0  0  0  0  0  0
   -2.5505  -24.2107    9.8877 S   0  0  0  0  0  0  0  0  0  0  0  0
   -3.1591  -22.6884   10.7442 C   0  0  0  0  0  0  0  0  0  0  0  0
   -4.6789  -22.6753   10.7133 C   0  0  0  0  0  0  0  0  0  0  0  0
   -2.5992  -21.3550   10.2161 C   0  0  0  0  0  0  0  0  0  0  0  0
   -1.1217  -21.3681    9.8292 C   0  0  0  0  0  0  0  0  0  0  0  0
   -0.8356  -21.2796    8.6694 O   0  0  0  0  0  0  0  0  0  0  0  0
   -0.3001  -21.5709   10.9802 N   0  0  0  0  0  0  0  0  0  0  0  0
    1.1074  -21.8257   11.0989 C   0  0  0  0  0  0  0  0  0  0  0  0
    1.5131  -22.2953   12.4424 C   0  0  0  0  0  0  0  0  0  0  0  0
    2.8498  -21.5963   12.4784 C   0  0  0  0  0  0  0  0  0  0  0  0
    2.6834  -20.1228   12.2314 N   0  0  0  0  0  0  0  0  0  0  0  0
    3.9293  -19.4351   12.4584 C   0  0  0  0  0  0  0  0  0  0  0  0
    4.8280  -19.1719   11.6990 O   0  0  0  0  0  0  0  0  0  0  0  0
    4.0234  -19.0802   13.9606 C   0  0  0  0  0  0  0  0  0  0  0  0
    4.9884  -18.0686   14.2774 O   0  0  0  0  0  0  0  0  0  0  0  0
    4.9776  -17.8370   15.6116 C   0  0  0  0  0  0  0  0  0  0  0  0
    4.0166  -17.0611   16.3038 C   0  0  0  0  0  0  0  0  0  0  0  0
    4.1278  -17.1939   17.6655 C   0  0  0  0  0  0  0  0  0  0  0  0
    5.3614  -18.2963   18.0969 S   0  0  0  0  0  0  0  0  0  0  0  0
    5.8691  -18.4471   16.4601 C   0  0  0  0  0  0  0  0  0  0  0  0
    2.0554  -20.6338   10.9508 C   0  0  0  0  0  0  0  0  0  0  0  0
   -2.6655  -24.6745    7.5399 H   0  0  0  0  0  0  0  0  0  0  0  0
   -4.1862  -23.9828    8.1121 H   0  0  0  0  0  0  0  0  0  0  0  0
   -2.7700  -22.9327    7.8221 H   0  0  0  0  0  0  0  0  0  0  0  0
   -2.8328  -22.8060   11.7831 H   0  0  0  0  0  0  0  0  0  0  0  0
   -5.0638  -21.8053   11.2560 H   0  0  0  0  0  0  0  0  0  0  0  0
   -5.1019  -23.5743   11.1748 H   0  0  0  0  0  0  0  0  0  0  0  0
   -5.0571  -22.6104    9.6908 H   0  0  0  0  0  0  0  0  0  0  0  0
   -2.7491  -20.5685   10.9667 H   0  0  0  0  0  0  0  0  0  0  0  0
   -3.1635  -21.0310    9.3315 H   0  0  0  0  0  0  0  0  0  0  0  0
   -0.8956  -21.6774   11.7971 H   0  0  0  0  0  0  0  0  0  0  0  0
    1.3509  -22.5587   10.3198 H   0  0  0  0  0  0  0  0  0  0  0  0
    1.5991  -23.3815   12.5201 H   0  0  0  0  0  0  0  0  0  0  0  0
    0.8720  -21.9144   13.2424 H   0  0  0  0  0  0  0  0  0  0  0  0
    3.2531  -21.7081   13.4934 H   0  0  0  0  0  0  0  0  0  0  0  0
    3.6266  -22.0448   11.8332 H   0  0  0  0  0  0  0  0  0  0  0  0
    3.0282  -18.7975   14.3220 H   0  0  0  0  0  0  0  0  0  0  0  0
    4.3197  -20.0055   14.4727 H   0  0  0  0  0  0  0  0  0  0  0  0
    3.2149  -16.5153   15.8444 H   0  0  0  0  0  0  0  0  0  0  0  0
    3.4897  -16.7633   18.4210 H   0  0  0  0  0  0  0  0  0  0  0  0
    6.7074  -19.0774   16.2017 H   0  0  0  0  0  0  0  0  0  0  0  0
    2.8564  -20.8328   10.2190 H   0  0  0  0  0  0  0  0  0  0  0  0
    1.5210  -19.7688   10.5358 H   0  0  0  0  0  0  0  0  0  0  0  0
  1  2  1  0
  2  3  1  0
  3  4  1  0
  3  5  1  0
  5  6  1  0
  6  7  2  0
  6  8  1  0
  8  9  1  0
  9 10  1  0
 10 11  1  0
 11 12  1  0
 12 13  1  0
 13 14  2  0
 13 15  1  0
 15 16  1  0
 16 17  1  0
 17 18  1  0
 18 19  2  0
 19 20  1  0
 20 21  1  0
 12 22  1  0
 22  9  1  0
 21 17  2  0
  1 23  1  0
  1 24  1  0
  1 25  1  0
  3 26  1  0
  4 27  1  0
  4 28  1  0
  4 29  1  0
  5 30  1  0
  5 31  1  0
  8 32  1  0
  9 33  1  0
 10 34  1  0
 10 35  1  0
 11 36  1  0
 11 37  1  0
 15 38  1  0
 15 39  1  0
 18 40  1  0
 19 41  1  0
 21 42  1  0
 22 43  1  0
 22 44  1  0
M  END
>  <Energy>  (1093) 
99.268332839020701

>  <compound_id>  (1093) 
6397

>  <target_id>  (1093) 
1

>  <reference_id>  (1093) 
30

>  <inspiration_ids>  (1093) 
[30, 76]

>  <energy_score>  (1093) 
17.653062903947045

>  <distance_score>  (1093) 
15.459442116640163

>  <path>  (1093) 
/opt/xchem-fragalysis-2/maxwin/BulkDock/SCRATCH/511018/C6397-P30/C6397-P30.minimised.mol

>  <scratch_subdir>  (1093) 
/opt/xchem-fragalysis-2/maxwin/BulkDock/SCRATCH/511018/C6397-P30

>  <fragmenstein_runtime>  (1093) 
26.642990589141846

>  <fragmenstein_outcome>  (1093) 
too moved

>  <fragmenstein_mode>  (1093) 
expansion

>  <fragmenstein_error>  (1093) 


$$$$
C6397-P76
     RDKit          3D

 44 45  0  0  0  0  0  0  0  0999 V2000
    3.4011  -24.8932   13.5633 C   0  0  0  0  0  0  0  0  0  0  0  0
    3.0830  -23.3356   12.6985 S   0  0  0  0  0  0  0  0  0  0  0  0
    3.5324  -22.0935   13.9953 C   0  0  0  0  0  0  0  0  0  0  0  0
    2.8091  -22.3583   15.3131 C   0  0  0  0  0  0  0  0  0  0  0  0
    5.0829  -22.0828   14.1465 C   0  0  0  0  0  0  0  0  0  0  0  0
    5.6422  -20.8469   14.8693 C   0  0  0  0  0  0  0  0  0  0  0  0
    4.8840  -20.0356   15.3075 O   0  0  0  0  0  0  0  0  0  0  0  0
    7.0887  -20.8824   14.8706 N   0  0  0  0  0  0  0  0  0  0  0  0
    8.0636  -19.9931   15.4876 C   0  0  0  0  0  0  0  0  0  0  0  0
    7.6958  -18.5681   15.2600 C   0  0  0  0  0  0  0  0  0  0  0  0
    8.9347  -18.1189   14.5213 C   0  0  0  0  0  0  0  0  0  0  0  0
   10.2198  -18.6377   15.0560 N   0  0  0  0  0  0  0  0  0  0  0  0
   10.6018  -17.9078   16.2384 C   0  0  0  0  0  0  0  0  0  0  0  0
   10.3605  -18.1201   17.4004 O   0  0  0  0  0  0  0  0  0  0  0  0
   11.4159  -16.6022   15.8625 C   0  0  0  0  0  0  0  0  0  0  0  0
   10.6033  -15.4409   15.6568 O   0  0  0  0  0  0  0  0  0  0  0  0
   11.1855  -14.2026   15.7800 C   0  0  0  0  0  0  0  0  0  0  0  0
   10.4792  -12.9974   15.4469 C   0  0  0  0  0  0  0  0  0  0  0  0
   11.1964  -11.8504   15.7177 C   0  0  0  0  0  0  0  0  0  0  0  0
   12.7431  -12.2156   16.3347 S   0  0  0  0  0  0  0  0  0  0  0  0
   12.4471  -13.9046   16.2499 C   0  0  0  0  0  0  0  0  0  0  0  0
    9.4853  -19.9703   14.8980 C   0  0  0  0  0  0  0  0  0  0  0  0
    2.7185  -25.0240   14.4055 H   0  0  0  0  0  0  0  0  0  0  0  0
    3.2347  -25.7195   12.8664 H   0  0  0  0  0  0  0  0  0  0  0  0
    4.4357  -24.9470   13.9091 H   0  0  0  0  0  0  0  0  0  0  0  0
    3.2026  -21.1241   13.6044 H   0  0  0  0  0  0  0  0  0  0  0  0
    3.1943  -23.2460   15.8246 H   0  0  0  0  0  0  0  0  0  0  0  0
    1.7338  -22.4867   15.1571 H   0  0  0  0  0  0  0  0  0  0  0  0
    2.9326  -21.5168   16.0023 H   0  0  0  0  0  0  0  0  0  0  0  0
    5.5504  -22.0956   13.1530 H   0  0  0  0  0  0  0  0  0  0  0  0
    5.4191  -22.9685   14.6985 H   0  0  0  0  0  0  0  0  0  0  0  0
    7.3986  -21.7673   14.4822 H   0  0  0  0  0  0  0  0  0  0  0  0
    8.0781  -20.2208   16.5592 H   0  0  0  0  0  0  0  0  0  0  0  0
    6.7955  -18.3773   14.6710 H   0  0  0  0  0  0  0  0  0  0  0  0
    7.6174  -18.0311   16.2050 H   0  0  0  0  0  0  0  0  0  0  0  0
    8.9997  -17.0379   14.6336 H   0  0  0  0  0  0  0  0  0  0  0  0
    8.8771  -18.3035   13.4358 H   0  0  0  0  0  0  0  0  0  0  0  0
   11.9933  -16.7978   14.9515 H   0  0  0  0  0  0  0  0  0  0  0  0
   12.1191  -16.4631   16.6920 H   0  0  0  0  0  0  0  0  0  0  0  0
    9.4699  -12.9759   15.0538 H   0  0  0  0  0  0  0  0  0  0  0  0
   10.8775  -10.8253   15.5894 H   0  0  0  0  0  0  0  0  0  0  0  0
   13.2284  -14.5715   16.5804 H   0  0  0  0  0  0  0  0  0  0  0  0
   10.0933  -20.7006   15.4482 H   0  0  0  0  0  0  0  0  0  0  0  0
    9.5267  -20.2927   13.8448 H   0  0  0  0  0  0  0  0  0  0  0  0
  1  2  1  0
  2  3  1  0
  3  4  1  0
  3  5  1  0
  5  6  1  0
  6  7  2  0
  6  8  1  0
  8  9  1  0
  9 10  1  0
 10 11  1  0
 11 12  1  0
 12 13  1  0
 13 14  2  0
 13 15  1  0
 15 16  1  0
 16 17  1  0
 17 18  1  0
 18 19  2  0
 19 20  1  0
 20 21  1  0
 12 22  1  0
 22  9  1  0
 21 17  2  0
  1 23  1  0
  1 24  1  0
  1 25  1  0
  3 26  1  0
  4 27  1  0
  4 28  1  0
  4 29  1  0
  5 30  1  0
  5 31  1  0
  8 32  1  0
  9 33  1  0
 10 34  1  0
 10 35  1  0
 11 36  1  0
 11 37  1  0
 15 38  1  0
 15 39  1  0
 18 40  1  0
 19 41  1  0
 21 42  1  0
 22 43  1  0
 22 44  1  0
M  END
>  <Energy>  (1094) 
97.136464598671068

>  <compound_id>  (1094) 
6397

>  <target_id>  (1094) 
1

>  <reference_id>  (1094) 
76

>  <inspiration_ids>  (1094) 
[30, 76]

>  <energy_score>  (1094) 
15.521194663596248

>  <distance_score>  (1094) 
17.887325942544784

>  <path>  (1094) 
/opt/xchem-fragalysis-2/maxwin/BulkDock/SCRATCH/511018/C6397-P76/C6397-P76.minimised.mol

>  <scratch_subdir>  (1094) 
/opt/xchem-fragalysis-2/maxwin/BulkDock/SCRATCH/511018/C6397-P76

>  <fragmenstein_runtime>  (1094) 
41.57095432281494

>  <fragmenstein_outcome>  (1094) 
too moved

>  <fragmenstein_mode>  (1094) 
expansion

>  <fragmenstein_error>  (1094) 


$$$$
C6403-P30
     RDKit          3D

 35 36  0  0  0  0  0  0  0  0999 V2000
   -6.9330  -15.4224   18.5211 C   0  0  0  0  0  0  0  0  0  0  0  0
   -5.6441  -14.8227   18.1461 N   0  0  0  0  0  0  0  0  0  0  0  0
   -4.5432  -15.5716   18.7554 C   0  0  0  0  0  0  0  0  0  0  0  0
   -5.6068  -13.3713   18.4528 C   0  0  0  0  0  0  0  0  0  0  0  0
   -5.2456  -12.8688   19.8032 C   0  0  0  0  0  0  0  0  0  0  0  0
   -4.8553  -11.4516   19.3668 C   0  0  0  0  0  0  0  0  0  0  0  0
   -3.7419  -11.3817   18.3484 N   0  0  0  0  0  0  0  0  0  0  0  0
   -3.5246  -10.0022   17.9313 C   0  0  0  0  0  0  0  0  0  0  0  0
   -4.0120   -9.3740   17.0215 O   0  0  0  0  0  0  0  0  0  0  0  0
   -2.3783   -9.2574   18.7581 C   0  0  0  0  0  0  0  0  0  0  0  0
   -1.7422   -8.2857   17.8778 O   0  0  0  0  0  0  0  0  0  0  0  0
   -0.5583   -7.6732   18.2239 C   0  0  0  0  0  0  0  0  0  0  0  0
    0.2408   -6.9825   17.2454 C   0  0  0  0  0  0  0  0  0  0  0  0
    1.4214   -6.4733   17.7495 C   0  0  0  0  0  0  0  0  0  0  0  0
    1.5640   -6.7782   19.4246 S   0  0  0  0  0  0  0  0  0  0  0  0
    0.0269   -7.5702   19.4681 C   0  0  0  0  0  0  0  0  0  0  0  0
   -4.5717  -12.5108   17.6976 C   0  0  0  0  0  0  0  0  0  0  0  0
   -7.7422  -14.9831   17.9277 H   0  0  0  0  0  0  0  0  0  0  0  0
   -7.1558  -15.2615   19.5822 H   0  0  0  0  0  0  0  0  0  0  0  0
   -6.9556  -16.4991   18.3391 H   0  0  0  0  0  0  0  0  0  0  0  0
   -4.5207  -16.5981   18.3750 H   0  0  0  0  0  0  0  0  0  0  0  0
   -4.6271  -15.6231   19.8466 H   0  0  0  0  0  0  0  0  0  0  0  0
   -3.5741  -15.1301   18.5017 H   0  0  0  0  0  0  0  0  0  0  0  0
   -6.5904  -12.9627   18.1743 H   0  0  0  0  0  0  0  0  0  0  0  0
   -6.0811  -12.8794   20.5082 H   0  0  0  0  0  0  0  0  0  0  0  0
   -4.3820  -13.3678   20.2543 H   0  0  0  0  0  0  0  0  0  0  0  0
   -4.4854  -10.9078   20.2467 H   0  0  0  0  0  0  0  0  0  0  0  0
   -5.7203  -10.8625   19.0148 H   0  0  0  0  0  0  0  0  0  0  0  0
   -2.8461   -8.7350   19.5977 H   0  0  0  0  0  0  0  0  0  0  0  0
   -1.6714  -10.0072   19.1068 H   0  0  0  0  0  0  0  0  0  0  0  0
   -0.0517   -6.8890   16.2082 H   0  0  0  0  0  0  0  0  0  0  0  0
    2.1951   -5.9359   17.2191 H   0  0  0  0  0  0  0  0  0  0  0  0
   -0.3314   -7.9624   20.4079 H   0  0  0  0  0  0  0  0  0  0  0  0
   -5.0836  -12.0506   16.8406 H   0  0  0  0  0  0  0  0  0  0  0  0
   -3.8014  -13.1672   17.2751 H   0  0  0  0  0  0  0  0  0  0  0  0
  1  2  1  0
  2  3  1  0
  2  4  1  0
  4  5  1  0
  5  6  1  0
  6  7  1  0
  7  8  1  0
  8  9  2  0
  8 10  1  0
 10 11  1  0
 11 12  1  0
 12 13  1  0
 13 14  2  0
 14 15  1  0
 15 16  1  0
  7 17  1  0
 17  4  1  0
 16 12  2  0
  1 18  1  0
  1 19  1  0
  1 20  1  0
  3 21  1  0
  3 22  1  0
  3 23  1  0
  4 24  1  0
  5 25  1  0
  5 26  1  0
  6 27  1  0
  6 28  1  0
 10 29  1  0
 10 30  1  0
 13 31  1  0
 14 32  1  0
 16 33  1  0
 17 34  1  0
 17 35  1  0
M  END
>  <Energy>  (1095) 
127.60385747029937

>  <compound_id>  (1095) 
6403

>  <target_id>  (1095) 
1

>  <reference_id>  (1095) 
30

>  <inspiration_ids>  (1095) 
[30, 76]

>  <energy_score>  (1095) 
33.747231465466314

>  <distance_score>  (1095) 
15.394337478214874

>  <path>  (1095) 
/opt/xchem-fragalysis-2/maxwin/BulkDock/SCRATCH/511018/C6403-P30/C6403-P30.minimised.mol

>  <scratch_subdir>  (1095) 
/opt/xchem-fragalysis-2/maxwin/BulkDock/SCRATCH/511018/C6403-P30

>  <fragmenstein_runtime>  (1095) 
17.361534118652344

>  <fragmenstein_outcome>  (1095) 
too moved

>  <fragmenstein_mode>  (1095) 
expansion

>  <fragmenstein_error>  (1095) 


$$$$
C6403-P76
     RDKit          3D

 35 36  0  0  0  0  0  0  0  0999 V2000
   -6.8037  -19.4124   11.8348 C   0  0  0  0  0  0  0  0  0  0  0  0
   -5.8018  -20.2440   12.4584 N   0  0  0  0  0  0  0  0  0  0  0  0
   -6.8783  -21.5327   12.8943 C   0  0  0  0  0  0  0  0  0  0  0  0
   -4.0909  -20.5036   11.9892 C   0  0  0  0  0  0  0  0  0  0  0  0
   -3.0094  -21.5536   12.1293 C   0  0  0  0  0  0  0  0  0  0  0  0
   -1.8807  -20.7763   11.4507 C   0  0  0  0  0  0  0  0  0  0  0  0
   -1.4565  -19.5043   12.1145 N   0  0  0  0  0  0  0  0  0  0  0  0
   -0.5065  -18.7862   11.2684 C   0  0  0  0  0  0  0  0  0  0  0  0
   -0.6931  -17.9471   10.4172 O   0  0  0  0  0  0  0  0  0  0  0  0
    0.9892  -19.1311   11.6461 C   0  0  0  0  0  0  0  0  0  0  0  0
    1.9108  -18.4510   10.7619 O   0  0  0  0  0  0  0  0  0  0  0  0
    3.2050  -18.2382   11.1598 C   0  0  0  0  0  0  0  0  0  0  0  0
    4.1634  -17.6289   10.2779 C   0  0  0  0  0  0  0  0  0  0  0  0
    5.4209  -17.5146   10.8345 C   0  0  0  0  0  0  0  0  0  0  0  0
    5.4522  -18.1319   12.4298 S   0  0  0  0  0  0  0  0  0  0  0  0
    3.7866  -18.5386   12.3722 C   0  0  0  0  0  0  0  0  0  0  0  0
   -2.9742  -19.3416   12.2734 C   0  0  0  0  0  0  0  0  0  0  0  0
   -6.9037  -19.6379   10.8344 H   0  0  0  0  0  0  0  0  0  0  0  0
   -7.8631  -19.6803   11.9352 H   0  0  0  0  0  0  0  0  0  0  0  0
   -6.6663  -18.3537   12.1049 H   0  0  0  0  0  0  0  0  0  0  0  0
   -6.5807  -22.5724   12.9095 H   0  0  0  0  0  0  0  0  0  0  0  0
   -7.7482  -21.5799   12.2086 H   0  0  0  0  0  0  0  0  0  0  0  0
   -7.2328  -21.5017   13.8926 H   0  0  0  0  0  0  0  0  0  0  0  0
   -4.1573  -20.5746   10.8936 H   0  0  0  0  0  0  0  0  0  0  0  0
   -3.2111  -22.4738   11.5694 H   0  0  0  0  0  0  0  0  0  0  0  0
   -2.6432  -21.7776   13.1348 H   0  0  0  0  0  0  0  0  0  0  0  0
   -0.9866  -21.4157   11.4522 H   0  0  0  0  0  0  0  0  0  0  0  0
   -2.0727  -20.5892   10.3795 H   0  0  0  0  0  0  0  0  0  0  0  0
    1.1327  -18.8232   12.6829 H   0  0  0  0  0  0  0  0  0  0  0  0
    1.1420  -20.2097   11.5443 H   0  0  0  0  0  0  0  0  0  0  0  0
    3.9217  -17.3050    9.2735 H   0  0  0  0  0  0  0  0  0  0  0  0
    6.3106  -17.1174   10.3683 H   0  0  0  0  0  0  0  0  0  0  0  0
    3.3327  -18.9914   13.2416 H   0  0  0  0  0  0  0  0  0  0  0  0
   -3.1000  -18.9704   13.2929 H   0  0  0  0  0  0  0  0  0  0  0  0
   -3.1225  -18.4335   11.6813 H   0  0  0  0  0  0  0  0  0  0  0  0
  1  2  1  0
  2  3  1  0
  2  4  1  0
  4  5  1  0
  5  6  1  0
  6  7  1  0
  7  8  1  0
  8  9  2  0
  8 10  1  0
 10 11  1  0
 11 12  1  0
 12 13  1  0
 13 14  2  0
 14 15  1  0
 15 16  1  0
  7 17  1  0
 17  4  1  0
 16 12  2  0
  1 18  1  0
  1 19  1  0
  1 20  1  0
  3 21  1  0
  3 22  1  0
  3 23  1  0
  4 24  1  0
  5 25  1  0
  5 26  1  0
  6 27  1  0
  6 28  1  0
 10 29  1  0
 10 30  1  0
 13 31  1  0
 14 32  1  0
 16 33  1  0
 17 34  1  0
 17 35  1  0
M  END
>  <Energy>  (1096) 
246.79807406415617

>  <compound_id>  (1096) 
6403

>  <target_id>  (1096) 
1

>  <reference_id>  (1096) 
76

>  <inspiration_ids>  (1096) 
[30, 76]

>  <energy_score>  (1096) 
152.94144805933274

>  <distance_score>  (1096) 
14.309882111160803

>  <path>  (1096) 
/opt/xchem-fragalysis-2/maxwin/BulkDock/SCRATCH/511018/C6403-P76/C6403-P76.minimised.mol

>  <scratch_subdir>  (1096) 
/opt/xchem-fragalysis-2/maxwin/BulkDock/SCRATCH/511018/C6403-P76

>  <fragmenstein_runtime>  (1096) 
15.487563371658325

>  <fragmenstein_outcome>  (1096) 
too moved

>  <fragmenstein_mode>  (1096) 
expansion

>  <fragmenstein_error>  (1096) 


$$$$
C6405-P30
     RDKit          3D

 32 33  0  0  0  0  0  0  0  0999 V2000
   -3.0469  -16.2306   11.0582 C   0  0  0  0  0  0  0  0  0  0  0  0
   -2.6577  -14.9169   11.5588 N   0  0  0  0  0  0  0  0  0  0  0  0
   -1.3803  -14.4143   11.0081 C   0  0  0  0  0  0  0  0  0  0  0  0
   -1.2568  -14.3040    9.5264 C   0  0  0  0  0  0  0  0  0  0  0  0
   -0.6270  -12.9053    9.3859 C   0  0  0  0  0  0  0  0  0  0  0  0
    0.1336  -12.3768   10.5886 N   0  0  0  0  0  0  0  0  0  0  0  0
    0.5475  -10.9969   10.3604 C   0  0  0  0  0  0  0  0  0  0  0  0
   -0.0143   -9.9598   10.6167 O   0  0  0  0  0  0  0  0  0  0  0  0
    2.0276  -10.9179    9.7714 C   0  0  0  0  0  0  0  0  0  0  0  0
    2.5629   -9.5815    9.6699 O   0  0  0  0  0  0  0  0  0  0  0  0
    3.8297   -9.3148   10.1381 C   0  0  0  0  0  0  0  0  0  0  0  0
    4.2430   -7.9795   10.4759 C   0  0  0  0  0  0  0  0  0  0  0  0
    5.5362   -7.9113   10.9505 C   0  0  0  0  0  0  0  0  0  0  0  0
    6.2903   -9.4421   10.9563 S   0  0  0  0  0  0  0  0  0  0  0  0
    4.8834  -10.1917   10.2950 C   0  0  0  0  0  0  0  0  0  0  0  0
   -1.0717  -12.9391   11.3151 C   0  0  0  0  0  0  0  0  0  0  0  0
   -2.2308  -16.9566   11.1040 H   0  0  0  0  0  0  0  0  0  0  0  0
   -3.3948  -16.1644   10.0233 H   0  0  0  0  0  0  0  0  0  0  0  0
   -3.8658  -16.6001   11.6801 H   0  0  0  0  0  0  0  0  0  0  0  0
   -3.4043  -14.2530   11.3498 H   0  0  0  0  0  0  0  0  0  0  0  0
   -0.5518  -15.0213   11.3889 H   0  0  0  0  0  0  0  0  0  0  0  0
   -0.6032  -15.0849    9.1233 H   0  0  0  0  0  0  0  0  0  0  0  0
   -2.2062  -14.3412    8.9823 H   0  0  0  0  0  0  0  0  0  0  0  0
    0.0901  -12.9254    8.5539 H   0  0  0  0  0  0  0  0  0  0  0  0
   -1.3807  -12.1615    9.0738 H   0  0  0  0  0  0  0  0  0  0  0  0
    1.9967  -11.3309    8.7578 H   0  0  0  0  0  0  0  0  0  0  0  0
    2.6617  -11.5511   10.3833 H   0  0  0  0  0  0  0  0  0  0  0  0
    3.5905   -7.1189   10.3995 H   0  0  0  0  0  0  0  0  0  0  0  0
    6.0728   -7.0420   11.2915 H   0  0  0  0  0  0  0  0  0  0  0  0
    4.9173  -11.2494   10.0819 H   0  0  0  0  0  0  0  0  0  0  0  0
   -1.9380  -12.2657   11.1907 H   0  0  0  0  0  0  0  0  0  0  0  0
   -0.8177  -12.8473   12.3796 H   0  0  0  0  0  0  0  0  0  0  0  0
  1  2  1  0
  2  3  1  0
  3  4  1  0
  4  5  1  0
  5  6  1  0
  6  7  1  0
  7  8  2  0
  7  9  1  0
  9 10  1  0
 10 11  1  0
 11 12  1  0
 12 13  2  0
 13 14  1  0
 14 15  1  0
  6 16  1  0
 16  3  1  0
 15 11  2  0
  1 17  1  0
  1 18  1  0
  1 19  1  0
  2 20  1  0
  3 21  1  0
  4 22  1  0
  4 23  1  0
  5 24  1  0
  5 25  1  0
  9 26  1  0
  9 27  1  0
 12 28  1  0
 13 29  1  0
 15 30  1  0
 16 31  1  0
 16 32  1  0
M  END
>  <Energy>  (1097) 
112.86977311885427

>  <compound_id>  (1097) 
6405

>  <target_id>  (1097) 
1

>  <reference_id>  (1097) 
30

>  <inspiration_ids>  (1097) 
[30, 76]

>  <energy_score>  (1097) 
41.78431523440139

>  <distance_score>  (1097) 
15.359962189299765

>  <path>  (1097) 
/opt/xchem-fragalysis-2/maxwin/BulkDock/SCRATCH/511018/C6405-P30/C6405-P30.minimised.mol

>  <scratch_subdir>  (1097) 
/opt/xchem-fragalysis-2/maxwin/BulkDock/SCRATCH/511018/C6405-P30

>  <fragmenstein_runtime>  (1097) 
15.370241403579712

>  <fragmenstein_outcome>  (1097) 
too moved

>  <fragmenstein_mode>  (1097) 
expansion

>  <fragmenstein_error>  (1097) 


$$$$
C6405-P76
     RDKit          3D

 32 33  0  0  0  0  0  0  0  0999 V2000
   -3.2843  -23.7564   10.9403 C   0  0  0  0  0  0  0  0  0  0  0  0
   -3.0971  -22.3539   10.6080 N   0  0  0  0  0  0  0  0  0  0  0  0
   -1.7514  -21.8629   10.9058 C   0  0  0  0  0  0  0  0  0  0  0  0
   -1.3743  -21.7684   12.3480 C   0  0  0  0  0  0  0  0  0  0  0  0
   -0.9821  -20.3011   12.4267 C   0  0  0  0  0  0  0  0  0  0  0  0
   -0.3175  -19.7397   11.1876 N   0  0  0  0  0  0  0  0  0  0  0  0
    1.0809  -20.0943   11.1628 C   0  0  0  0  0  0  0  0  0  0  0  0
    1.6379  -21.0500   10.6810 O   0  0  0  0  0  0  0  0  0  0  0  0
    1.9301  -18.9893   11.8912 C   0  0  0  0  0  0  0  0  0  0  0  0
    2.9713  -18.4238   11.0828 O   0  0  0  0  0  0  0  0  0  0  0  0
    4.2200  -18.2815   11.6254 C   0  0  0  0  0  0  0  0  0  0  0  0
    5.3437  -17.9320   10.8093 C   0  0  0  0  0  0  0  0  0  0  0  0
    6.5432  -18.0821   11.4707 C   0  0  0  0  0  0  0  0  0  0  0  0
    6.3085  -18.5433   13.1061 S   0  0  0  0  0  0  0  0  0  0  0  0
    4.6045  -18.4522   12.9388 C   0  0  0  0  0  0  0  0  0  0  0  0
   -1.5182  -20.3916   10.5239 C   0  0  0  0  0  0  0  0  0  0  0  0
   -2.6565  -24.3849   10.2998 H   0  0  0  0  0  0  0  0  0  0  0  0
   -4.3221  -24.0502   10.7589 H   0  0  0  0  0  0  0  0  0  0  0  0
   -3.0420  -23.9854   11.9811 H   0  0  0  0  0  0  0  0  0  0  0  0
   -3.8251  -21.7952   11.0786 H   0  0  0  0  0  0  0  0  0  0  0  0
   -1.0173  -22.4790   10.3703 H   0  0  0  0  0  0  0  0  0  0  0  0
   -2.1654  -21.9983   13.0623 H   0  0  0  0  0  0  0  0  0  0  0  0
   -0.5233  -22.4226   12.5684 H   0  0  0  0  0  0  0  0  0  0  0  0
   -1.8402  -19.6629   12.6973 H   0  0  0  0  0  0  0  0  0  0  0  0
   -0.2790  -20.1804   13.2626 H   0  0  0  0  0  0  0  0  0  0  0  0
    2.2965  -19.4782   12.7990 H   0  0  0  0  0  0  0  0  0  0  0  0
    1.2710  -18.1664   12.1802 H   0  0  0  0  0  0  0  0  0  0  0  0
    5.2680  -17.7068    9.7528 H   0  0  0  0  0  0  0  0  0  0  0  0
    7.5393  -17.9889   11.0608 H   0  0  0  0  0  0  0  0  0  0  0  0
    3.9923  -18.6557   13.8047 H   0  0  0  0  0  0  0  0  0  0  0  0
   -1.3035  -20.3516    9.4473 H   0  0  0  0  0  0  0  0  0  0  0  0
   -2.4036  -19.7514   10.6619 H   0  0  0  0  0  0  0  0  0  0  0  0
  1  2  1  0
  2  3  1  0
  3  4  1  0
  4  5  1  0
  5  6  1  0
  6  7  1  0
  7  8  2  0
  7  9  1  0
  9 10  1  0
 10 11  1  0
 11 12  1  0
 12 13  2  0
 13 14  1  0
 14 15  1  0
  6 16  1  0
 16  3  1  0
 15 11  2  0
  1 17  1  0
  1 18  1  0
  1 19  1  0
  2 20  1  0
  3 21  1  0
  4 22  1  0
  4 23  1  0
  5 24  1  0
  5 25  1  0
  9 26  1  0
  9 27  1  0
 12 28  1  0
 13 29  1  0
 15 30  1  0
 16 31  1  0
 16 32  1  0
M  END
>  <Energy>  (1098) 
112.04099675550094

>  <compound_id>  (1098) 
6405

>  <target_id>  (1098) 
1

>  <reference_id>  (1098) 
76

>  <inspiration_ids>  (1098) 
[30, 76]

>  <energy_score>  (1098) 
40.95553887105319

>  <distance_score>  (1098) 
14.679976389205978

>  <path>  (1098) 
/opt/xchem-fragalysis-2/maxwin/BulkDock/SCRATCH/511018/C6405-P76/C6405-P76.minimised.mol

>  <scratch_subdir>  (1098) 
/opt/xchem-fragalysis-2/maxwin/BulkDock/SCRATCH/511018/C6405-P76

>  <fragmenstein_runtime>  (1098) 
15.202409505844116

>  <fragmenstein_outcome>  (1098) 
too moved

>  <fragmenstein_mode>  (1098) 
expansion

>  <fragmenstein_error>  (1098) 


$$$$
C6408-P30
     RDKit          3D

 44 45  0  0  0  0  0  0  0  0999 V2000
   -6.7850  -20.4884   11.6439 C   0  0  0  0  0  0  0  0  0  0  0  0
   -5.7255  -21.5817   11.7417 C   0  0  0  0  0  0  0  0  0  0  0  0
   -4.8305  -22.1994   10.6182 C   0  0  0  0  0  0  0  0  0  0  0  0
   -5.3193  -23.5636   10.0680 C   0  0  0  0  0  0  0  0  0  0  0  0
   -3.3753  -22.5013   11.0925 C   0  0  0  0  0  0  0  0  0  0  0  0
   -2.6688  -21.5162   11.9157 N   0  0  0  0  0  0  0  0  0  0  0  0
   -2.6862  -20.1616   11.3802 C   0  0  0  0  0  0  0  0  0  0  0  0
   -1.3601  -19.5522   11.1234 C   0  0  0  0  0  0  0  0  0  0  0  0
   -1.9071  -18.1362   11.0563 C   0  0  0  0  0  0  0  0  0  0  0  0
   -2.7926  -17.5831   12.1797 N   0  0  0  0  0  0  0  0  0  0  0  0
   -4.0589  -16.8261   12.1205 C   0  0  0  0  0  0  0  0  0  0  0  0
   -4.7570  -16.5344   11.1740 O   0  0  0  0  0  0  0  0  0  0  0  0
   -4.6142  -16.4416   13.5331 C   0  0  0  0  0  0  0  0  0  0  0  0
   -4.9925  -15.0750   13.7428 O   0  0  0  0  0  0  0  0  0  0  0  0
   -4.9746  -14.5707   15.0167 C   0  0  0  0  0  0  0  0  0  0  0  0
   -5.6487  -13.3531   15.3532 C   0  0  0  0  0  0  0  0  0  0  0  0
   -5.4172  -12.9425   16.6565 C   0  0  0  0  0  0  0  0  0  0  0  0
   -4.3589  -14.0068   17.4786 S   0  0  0  0  0  0  0  0  0  0  0  0
   -4.3609  -15.0858   16.1371 C   0  0  0  0  0  0  0  0  0  0  0  0
   -3.0666  -19.0718   12.3913 C   0  0  0  0  0  0  0  0  0  0  0  0
   -7.7413  -20.8519   12.0238 H   0  0  0  0  0  0  0  0  0  0  0  0
   -6.4947  -19.6433   12.2617 H   0  0  0  0  0  0  0  0  0  0  0  0
   -6.9660  -20.0454   10.6805 H   0  0  0  0  0  0  0  0  0  0  0  0
   -5.0327  -21.0788   12.3974 H   0  0  0  0  0  0  0  0  0  0  0  0
   -6.2376  -22.4091   12.2410 H   0  0  0  0  0  0  0  0  0  0  0  0
   -4.7411  -21.4960    9.7891 H   0  0  0  0  0  0  0  0  0  0  0  0
   -4.4858  -24.1678    9.6880 H   0  0  0  0  0  0  0  0  0  0  0  0
   -5.8207  -24.1579   10.8385 H   0  0  0  0  0  0  0  0  0  0  0  0
   -5.9759  -23.4490    9.2058 H   0  0  0  0  0  0  0  0  0  0  0  0
   -2.7570  -22.6829   10.2025 H   0  0  0  0  0  0  0  0  0  0  0  0
   -3.3551  -23.4481   11.6480 H   0  0  0  0  0  0  0  0  0  0  0  0
   -3.1031  -21.5672   12.8427 H   0  0  0  0  0  0  0  0  0  0  0  0
   -3.2409  -20.1296   10.4452 H   0  0  0  0  0  0  0  0  0  0  0  0
   -0.6383  -19.6788   11.9391 H   0  0  0  0  0  0  0  0  0  0  0  0
   -0.9013  -19.8765   10.1851 H   0  0  0  0  0  0  0  0  0  0  0  0
   -1.0666  -17.4363   10.9719 H   0  0  0  0  0  0  0  0  0  0  0  0
   -2.4575  -17.9741   10.1163 H   0  0  0  0  0  0  0  0  0  0  0  0
   -3.9126  -16.8144   14.2799 H   0  0  0  0  0  0  0  0  0  0  0  0
   -5.5418  -17.0180   13.5818 H   0  0  0  0  0  0  0  0  0  0  0  0
   -6.2559  -12.7889   14.6549 H   0  0  0  0  0  0  0  0  0  0  0  0
   -5.7962  -12.0564   17.1481 H   0  0  0  0  0  0  0  0  0  0  0  0
   -3.8860  -16.0413   16.2675 H   0  0  0  0  0  0  0  0  0  0  0  0
   -2.4434  -19.2660   13.2833 H   0  0  0  0  0  0  0  0  0  0  0  0
   -4.0654  -19.2082   12.8059 H   0  0  0  0  0  0  0  0  0  0  0  0
  1  2  1  0
  2  3  1  0
  3  4  1  0
  3  5  1  0
  5  6  1  0
  6  7  1  0
  7  8  1  0
  8  9  1  0
  9 10  1  0
 10 11  1  0
 11 12  2  0
 11 13  1  0
 13 14  1  0
 14 15  1  0
 15 16  1  0
 16 17  2  0
 17 18  1  0
 18 19  1  0
 10 20  1  0
 20  7  1  0
 19 15  2  0
  1 21  1  0
  1 22  1  0
  1 23  1  0
  2 24  1  0
  2 25  1  0
  3 26  1  0
  4 27  1  0
  4 28  1  0
  4 29  1  0
  5 30  1  0
  5 31  1  0
  6 32  1  0
  7 33  1  0
  8 34  1  0
  8 35  1  0
  9 36  1  0
  9 37  1  0
 13 38  1  0
 13 39  1  0
 16 40  1  0
 17 41  1  0
 19 42  1  0
 20 43  1  0
 20 44  1  0
M  END
>  <Energy>  (1099) 
157.22553368874551

>  <compound_id>  (1099) 
6408

>  <target_id>  (1099) 
1

>  <reference_id>  (1099) 
30

>  <inspiration_ids>  (1099) 
[30, 76]

>  <energy_score>  (1099) 
29.499650521315345

>  <distance_score>  (1099) 
15.28446352059776

>  <path>  (1099) 
/opt/xchem-fragalysis-2/maxwin/BulkDock/SCRATCH/511018/C6408-P30/C6408-P30.minimised.mol

>  <scratch_subdir>  (1099) 
/opt/xchem-fragalysis-2/maxwin/BulkDock/SCRATCH/511018/C6408-P30

>  <fragmenstein_runtime>  (1099) 
21.911100149154663

>  <fragmenstein_outcome>  (1099) 
too moved

>  <fragmenstein_mode>  (1099) 
expansion

>  <fragmenstein_error>  (1099) 


$$$$
C6408-P76
     RDKit          3D

 44 45  0  0  0  0  0  0  0  0999 V2000
   -9.7442  -27.0145   14.3345 C   0  0  0  0  0  0  0  0  0  0  0  0
  -11.1421  -26.5976   14.7632 C   0  0  0  0  0  0  0  0  0  0  0  0
  -12.0208  -26.0202   13.6372 C   0  0  0  0  0  0  0  0  0  0  0  0
  -11.2945  -24.9003   12.9005 C   0  0  0  0  0  0  0  0  0  0  0  0
  -12.5300  -27.1420   12.7107 C   0  0  0  0  0  0  0  0  0  0  0  0
  -13.3984  -26.6412   11.6376 N   0  0  0  0  0  0  0  0  0  0  0  0
  -12.6575  -26.4757   10.3878 C   0  0  0  0  0  0  0  0  0  0  0  0
  -12.8800  -27.5287    9.3474 C   0  0  0  0  0  0  0  0  0  0  0  0
  -13.2549  -26.6476    8.1645 C   0  0  0  0  0  0  0  0  0  0  0  0
  -12.5820  -25.3056    8.1715 N   0  0  0  0  0  0  0  0  0  0  0  0
  -11.1892  -24.9552    8.1839 C   0  0  0  0  0  0  0  0  0  0  0  0
  -10.2104  -25.6479    8.2813 O   0  0  0  0  0  0  0  0  0  0  0  0
  -11.0745  -23.4216    8.0238 C   0  0  0  0  0  0  0  0  0  0  0  0
   -9.7795  -22.8618    8.1769 O   0  0  0  0  0  0  0  0  0  0  0  0
   -9.4848  -22.4938    9.4494 C   0  0  0  0  0  0  0  0  0  0  0  0
   -9.1401  -21.1762    9.8046 C   0  0  0  0  0  0  0  0  0  0  0  0
   -8.7490  -21.0668   11.1165 C   0  0  0  0  0  0  0  0  0  0  0  0
   -8.8012  -22.5685   11.9230 S   0  0  0  0  0  0  0  0  0  0  0  0
   -9.3064  -23.3620   10.5000 C   0  0  0  0  0  0  0  0  0  0  0  0
  -13.1417  -25.2820    9.5747 C   0  0  0  0  0  0  0  0  0  0  0  0
   -9.1854  -27.3901   15.1974 H   0  0  0  0  0  0  0  0  0  0  0  0
   -9.7756  -27.8125   13.5874 H   0  0  0  0  0  0  0  0  0  0  0  0
   -9.1834  -26.1768   13.9180 H   0  0  0  0  0  0  0  0  0  0  0  0
  -11.0465  -25.8515   15.5555 H   0  0  0  0  0  0  0  0  0  0  0  0
  -11.6475  -27.4565   15.2216 H   0  0  0  0  0  0  0  0  0  0  0  0
  -12.9033  -25.5776   14.1195 H   0  0  0  0  0  0  0  0  0  0  0  0
  -10.8192  -24.2138   13.6058 H   0  0  0  0  0  0  0  0  0  0  0  0
  -10.5172  -25.3081   12.2521 H   0  0  0  0  0  0  0  0  0  0  0  0
  -11.9861  -24.3114   12.2926 H   0  0  0  0  0  0  0  0  0  0  0  0
  -13.1317  -27.8271   13.3223 H   0  0  0  0  0  0  0  0  0  0  0  0
  -11.7098  -27.7521   12.3137 H   0  0  0  0  0  0  0  0  0  0  0  0
  -14.1604  -27.3059   11.5014 H   0  0  0  0  0  0  0  0  0  0  0  0
  -11.5812  -26.3666   10.5639 H   0  0  0  0  0  0  0  0  0  0  0  0
  -11.9589  -28.0921    9.1613 H   0  0  0  0  0  0  0  0  0  0  0  0
  -13.6748  -28.2475    9.5704 H   0  0  0  0  0  0  0  0  0  0  0  0
  -12.9038  -27.1432    7.2498 H   0  0  0  0  0  0  0  0  0  0  0  0
  -14.3428  -26.5362    8.0272 H   0  0  0  0  0  0  0  0  0  0  0  0
  -11.3771  -23.2058    6.9913 H   0  0  0  0  0  0  0  0  0  0  0  0
  -11.7976  -22.9077    8.6659 H   0  0  0  0  0  0  0  0  0  0  0  0
   -9.2211  -20.3491    9.1289 H   0  0  0  0  0  0  0  0  0  0  0  0
   -8.3706  -20.1909   11.5966 H   0  0  0  0  0  0  0  0  0  0  0  0
   -9.4062  -24.4366   10.4914 H   0  0  0  0  0  0  0  0  0  0  0  0
  -12.7650  -24.3761   10.0599 H   0  0  0  0  0  0  0  0  0  0  0  0
  -14.2374  -25.1456    9.5615 H   0  0  0  0  0  0  0  0  0  0  0  0
  1  2  1  0
  2  3  1  0
  3  4  1  0
  3  5  1  0
  5  6  1  0
  6  7  1  0
  7  8  1  0
  8  9  1  0
  9 10  1  0
 10 11  1  0
 11 12  2  0
 11 13  1  0
 13 14  1  0
 14 15  1  0
 15 16  1  0
 16 17  2  0
 17 18  1  0
 18 19  1  0
 10 20  1  0
 20  7  1  0
 19 15  2  0
  1 21  1  0
  1 22  1  0
  1 23  1  0
  2 24  1  0
  2 25  1  0
  3 26  1  0
  4 27  1  0
  4 28  1  0
  4 29  1  0
  5 30  1  0
  5 31  1  0
  6 32  1  0
  7 33  1  0
  8 34  1  0
  8 35  1  0
  9 36  1  0
  9 37  1  0
 13 38  1  0
 13 39  1  0
 16 40  1  0
 17 41  1  0
 19 42  1  0
 20 43  1  0
 20 44  1  0
M  END
>  <Energy>  (1100) 
113.46735123772869

>  <compound_id>  (1100) 
6408

>  <target_id>  (1100) 
1

>  <reference_id>  (1100) 
76

>  <inspiration_ids>  (1100) 
[30, 76]

>  <energy_score>  (1100) 
-14.258531929696801

>  <distance_score>  (1100) 
18.02885046040597

>  <path>  (1100) 
/opt/xchem-fragalysis-2/maxwin/BulkDock/SCRATCH/511018/C6408-P76/C6408-P76.minimised.mol

>  <scratch_subdir>  (1100) 
/opt/xchem-fragalysis-2/maxwin/BulkDock/SCRATCH/511018/C6408-P76

>  <fragmenstein_runtime>  (1100) 
31.695807456970215

>  <fragmenstein_outcome>  (1100) 
too moved

>  <fragmenstein_mode>  (1100) 
expansion

>  <fragmenstein_error>  (1100) 


$$$$
C6412-P114
     RDKit          3D

 40 41  0  0  0  0  0  0  0  0999 V2000
   -0.2916  -11.2764   11.3614 C   0  0  0  0  0  0  0  0  0  0  0  0
    0.5704  -12.1989   11.8321 C   0  0  0  0  0  0  0  0  0  0  0  0
    0.2252  -13.9524   12.0971 C   0  0  0  0  0  0  0  0  0  0  0  0
   -0.2900  -15.0504   11.1633 N   0  0  0  0  0  0  0  0  0  0  0  0
    0.2183  -16.4244   10.9007 C   0  0  0  0  0  0  0  0  0  0  0  0
    1.1518  -17.0174   11.3745 O   0  0  0  0  0  0  0  0  0  0  0  0
   -0.5102  -17.2585    9.7053 C   0  0  0  0  0  0  0  0  0  0  0  0
   -0.3619  -18.8013    9.8301 C   0  0  0  0  0  0  0  0  0  0  0  0
   -1.6993  -19.3877    9.4149 C   0  0  0  0  0  0  0  0  0  0  0  0
   -2.3798  -18.2337    8.7254 C   0  0  0  0  0  0  0  0  0  0  0  0
   -1.8703  -17.0297    9.3280 O   0  0  0  0  0  0  0  0  0  0  0  0
    1.8301  -11.2566   12.4110 N   0  0  0  0  0  0  0  0  0  0  0  0
    3.0063  -10.6593   11.7261 C   0  0  0  0  0  0  0  0  0  0  0  0
    3.2912  -10.6245   10.5616 O   0  0  0  0  0  0  0  0  0  0  0  0
    4.1205  -10.0379   13.3470 C   0  0  0  0  0  0  0  0  0  0  0  0
    4.9445   -8.3452   13.6797 C   0  0  0  0  0  0  0  0  0  0  0  0
    5.6499   -7.3199   14.1594 N   0  0  0  0  0  0  0  0  0  0  0  0
    6.3041   -6.8060   15.5217 C   0  0  0  0  0  0  0  0  0  0  0  0
    7.3174   -7.4717   15.1199 C   0  0  0  0  0  0  0  0  0  0  0  0
    6.5736   -8.2514   13.8341 N   0  0  0  0  0  0  0  0  0  0  0  0
    0.4209  -10.5330   10.9614 H   0  0  0  0  0  0  0  0  0  0  0  0
   -0.8964  -10.9029   12.1831 H   0  0  0  0  0  0  0  0  0  0  0  0
   -0.8723  -11.6678   10.5854 H   0  0  0  0  0  0  0  0  0  0  0  0
    0.1828  -12.2110   12.8613 H   0  0  0  0  0  0  0  0  0  0  0  0
   -0.4250  -13.9799   12.9643 H   0  0  0  0  0  0  0  0  0  0  0  0
    1.0639  -14.3929   12.5749 H   0  0  0  0  0  0  0  0  0  0  0  0
   -1.1504  -14.9091   10.6448 H   0  0  0  0  0  0  0  0  0  0  0  0
    0.1074  -17.0152    8.8289 H   0  0  0  0  0  0  0  0  0  0  0  0
   -0.0786  -19.1324   10.8347 H   0  0  0  0  0  0  0  0  0  0  0  0
    0.4325  -19.1475    9.1575 H   0  0  0  0  0  0  0  0  0  0  0  0
   -1.5992  -20.2628    8.7662 H   0  0  0  0  0  0  0  0  0  0  0  0
   -2.2690  -19.7039   10.2949 H   0  0  0  0  0  0  0  0  0  0  0  0
   -2.1133  -18.2173    7.6633 H   0  0  0  0  0  0  0  0  0  0  0  0
   -3.4675  -18.2579    8.7990 H   0  0  0  0  0  0  0  0  0  0  0  0
    1.9189  -11.1151   13.3843 H   0  0  0  0  0  0  0  0  0  0  0  0
    4.9744  -10.7537   13.3891 H   0  0  0  0  0  0  0  0  0  0  0  0
    3.6536  -10.4277   14.2457 H   0  0  0  0  0  0  0  0  0  0  0  0
    5.9192   -6.1800   16.3169 H   0  0  0  0  0  0  0  0  0  0  0  0
    8.3713   -7.4333   15.3318 H   0  0  0  0  0  0  0  0  0  0  0  0
    7.1579   -8.9880   13.4694 H   0  0  0  0  0  0  0  0  0  0  0  0
  1  2  1  0
  2  3  1  0
  3  4  1  0
  4  5  1  0
  5  6  2  0
  5  7  1  0
  7  8  1  0
  8  9  1  0
  9 10  1  0
 10 11  1  0
  2 12  1  0
 12 13  1  0
 13 14  2  0
 13 15  1  0
 15 16  1  0
 16 17  2  0
 17 18  1  0
 18 19  2  0
 19 20  1  0
 11  7  1  0
 20 16  1  0
  1 21  1  0
  1 22  1  0
  1 23  1  0
  2 24  1  0
  3 25  1  0
  3 26  1  0
  4 27  1  0
  7 28  1  0
  8 29  1  0
  8 30  1  0
  9 31  1  0
  9 32  1  0
 10 33  1  0
 10 34  1  0
 12 35  1  0
 15 36  1  0
 15 37  1  0
 18 38  1  0
 19 39  1  0
 20 40  1  0
M  END
>  <Energy>  (1101) 
563.79972920445925

>  <compound_id>  (1101) 
6412

>  <target_id>  (1101) 
1

>  <reference_id>  (1101) 
114

>  <inspiration_ids>  (1101) 
[114, 28]

>  <energy_score>  (1101) 
499.42081533931355

>  <distance_score>  (1101) 
11.000650764859639

>  <path>  (1101) 
/opt/xchem-fragalysis-2/maxwin/BulkDock/SCRATCH/511018/C6412-P114/C6412-P114.minimised.mol

>  <scratch_subdir>  (1101) 
/opt/xchem-fragalysis-2/maxwin/BulkDock/SCRATCH/511018/C6412-P114

>  <fragmenstein_runtime>  (1101) 
25.76819610595703

>  <fragmenstein_outcome>  (1101) 
too moved

>  <fragmenstein_mode>  (1101) 
expansion

>  <fragmenstein_error>  (1101) 


$$$$
C6412-P28
     RDKit          3D

 40 41  0  0  0  0  0  0  0  0999 V2000
   -0.4583  -11.5931   11.4640 C   0  0  0  0  0  0  0  0  0  0  0  0
   -0.1357  -12.8591   12.0511 C   0  0  0  0  0  0  0  0  0  0  0  0
   -1.2936  -14.4220   11.6977 C   0  0  0  0  0  0  0  0  0  0  0  0
   -3.0949  -15.1669   11.4249 N   0  0  0  0  0  0  0  0  0  0  0  0
   -4.2300  -16.1747   12.5939 C   0  0  0  0  0  0  0  0  0  0  0  0
   -3.9694  -16.3880   13.7805 O   0  0  0  0  0  0  0  0  0  0  0  0
   -5.8118  -17.1912   12.0972 C   0  0  0  0  0  0  0  0  0  0  0  0
   -6.5399  -18.9836   11.8150 C   0  0  0  0  0  0  0  0  0  0  0  0
   -5.8280  -20.3537   11.9329 C   0  0  0  0  0  0  0  0  0  0  0  0
   -4.5340  -19.9187   12.4644 C   0  0  0  0  0  0  0  0  0  0  0  0
   -4.9581  -18.4549   13.0422 O   0  0  0  0  0  0  0  0  0  0  0  0
    0.9798  -11.9176   12.9376 N   0  0  0  0  0  0  0  0  0  0  0  0
    2.3057  -10.6822   12.3447 C   0  0  0  0  0  0  0  0  0  0  0  0
    2.4418  -10.3494   11.1787 O   0  0  0  0  0  0  0  0  0  0  0  0
    3.8301   -9.8711   13.5817 C   0  0  0  0  0  0  0  0  0  0  0  0
    4.3986   -7.9510   13.9427 C   0  0  0  0  0  0  0  0  0  0  0  0
    3.8353   -6.8184   15.0005 N   0  0  0  0  0  0  0  0  0  0  0  0
    5.0102   -6.1493   16.2223 C   0  0  0  0  0  0  0  0  0  0  0  0
    6.3272   -6.4709   15.5947 C   0  0  0  0  0  0  0  0  0  0  0  0
    6.0277   -7.4547   14.1637 N   0  0  0  0  0  0  0  0  0  0  0  0
    0.4002  -10.9994   11.1793 H   0  0  0  0  0  0  0  0  0  0  0  0
   -0.9567  -11.0204   12.2411 H   0  0  0  0  0  0  0  0  0  0  0  0
   -0.9788  -11.6091   10.5530 H   0  0  0  0  0  0  0  0  0  0  0  0
    0.6975  -13.3537   11.5643 H   0  0  0  0  0  0  0  0  0  0  0  0
   -0.5726  -15.2163   11.9029 H   0  0  0  0  0  0  0  0  0  0  0  0
   -1.1452  -14.5341   10.6551 H   0  0  0  0  0  0  0  0  0  0  0  0
   -3.5537  -15.0539   10.5268 H   0  0  0  0  0  0  0  0  0  0  0  0
   -6.5086  -16.8263   12.8657 H   0  0  0  0  0  0  0  0  0  0  0  0
   -7.5156  -19.2155   12.2018 H   0  0  0  0  0  0  0  0  0  0  0  0
   -6.7327  -19.1114   10.7349 H   0  0  0  0  0  0  0  0  0  0  0  0
   -6.4249  -21.0491   12.5289 H   0  0  0  0  0  0  0  0  0  0  0  0
   -5.6554  -20.8848   10.9979 H   0  0  0  0  0  0  0  0  0  0  0  0
   -4.1301  -20.6613   13.1247 H   0  0  0  0  0  0  0  0  0  0  0  0
   -3.6805  -19.8332   11.7712 H   0  0  0  0  0  0  0  0  0  0  0  0
    1.1115  -12.1051   13.9289 H   0  0  0  0  0  0  0  0  0  0  0  0
    4.8161  -10.3569   13.4729 H   0  0  0  0  0  0  0  0  0  0  0  0
    3.6282  -10.2680   14.5701 H   0  0  0  0  0  0  0  0  0  0  0  0
    4.6857   -5.5465   17.0464 H   0  0  0  0  0  0  0  0  0  0  0  0
    7.3836   -6.3581   15.7157 H   0  0  0  0  0  0  0  0  0  0  0  0
    6.8541   -7.9898   13.9356 H   0  0  0  0  0  0  0  0  0  0  0  0
  1  2  1  0
  2  3  1  0
  3  4  1  0
  4  5  1  0
  5  6  2  0
  5  7  1  0
  7  8  1  0
  8  9  1  0
  9 10  1  0
 10 11  1  0
  2 12  1  0
 12 13  1  0
 13 14  2  0
 13 15  1  0
 15 16  1  0
 16 17  2  0
 17 18  1  0
 18 19  2  0
 19 20  1  0
 11  7  1  0
 20 16  1  0
  1 21  1  0
  1 22  1  0
  1 23  1  0
  2 24  1  0
  3 25  1  0
  3 26  1  0
  4 27  1  0
  7 28  1  0
  8 29  1  0
  8 30  1  0
  9 31  1  0
  9 32  1  0
 10 33  1  0
 10 34  1  0
 12 35  1  0
 15 36  1  0
 15 37  1  0
 18 38  1  0
 19 39  1  0
 20 40  1  0
M  END
>  <Energy>  (1102) 
1052.6767224788875

>  <compound_id>  (1102) 
6412

>  <target_id>  (1102) 
1

>  <reference_id>  (1102) 
28

>  <inspiration_ids>  (1102) 
[114, 28]

>  <energy_score>  (1102) 
988.2978086137488

>  <distance_score>  (1102) 
9.14035719495529

>  <path>  (1102) 
/opt/xchem-fragalysis-2/maxwin/BulkDock/SCRATCH/511018/C6412-P28/C6412-P28.minimised.mol

>  <scratch_subdir>  (1102) 
/opt/xchem-fragalysis-2/maxwin/BulkDock/SCRATCH/511018/C6412-P28

>  <fragmenstein_runtime>  (1102) 
22.750494241714478

>  <fragmenstein_outcome>  (1102) 
too moved

>  <fragmenstein_mode>  (1102) 
expansion

>  <fragmenstein_error>  (1102) 


$$$$
C6413-P114
     RDKit          3D

 46 47  0  0  0  0  0  0  0  0999 V2000
   13.6187   -9.6004    9.0468 C   0  0  0  0  0  0  0  0  0  0  0  0
   12.3758   -9.3815    9.8956 C   0  0  0  0  0  0  0  0  0  0  0  0
   11.1367   -9.7526    9.1595 C   0  0  0  0  0  0  0  0  0  0  0  0
   10.1425   -8.9690    8.6234 C   0  0  0  0  0  0  0  0  0  0  0  0
    9.1930   -9.7474    8.0118 N   0  0  0  0  0  0  0  0  0  0  0  0
    9.5750  -11.0110    8.1562 C   0  0  0  0  0  0  0  0  0  0  0  0
    8.7548  -12.2089    7.6776 C   0  0  0  0  0  0  0  0  0  0  0  0
    9.3588  -13.6283    7.6964 C   0  0  0  0  0  0  0  0  0  0  0  0
   10.5467  -13.7725    7.8080 O   0  0  0  0  0  0  0  0  0  0  0  0
    8.2870  -14.6193    7.4652 N   0  0  0  0  0  0  0  0  0  0  0  0
    8.3320  -16.0861    7.3974 C   0  0  0  0  0  0  0  0  0  0  0  0
    8.8396  -16.6789    8.6958 C   0  0  0  0  0  0  0  0  0  0  0  0
    7.0576  -16.8260    6.8191 C   0  0  0  0  0  0  0  0  0  0  0  0
    5.7850  -17.0314    7.5485 N   0  0  0  0  0  0  0  0  0  0  0  0
    5.5033  -17.7134    8.7947 C   0  0  0  0  0  0  0  0  0  0  0  0
    6.2415  -18.2166    9.5943 O   0  0  0  0  0  0  0  0  0  0  0  0
    3.9284  -17.6511    9.1107 C   0  0  0  0  0  0  0  0  0  0  0  0
    3.4423  -18.6313   10.1974 C   0  0  0  0  0  0  0  0  0  0  0  0
    2.2168  -19.3077    9.6175 C   0  0  0  0  0  0  0  0  0  0  0  0
    1.7681  -18.3279    8.5673 C   0  0  0  0  0  0  0  0  0  0  0  0
    2.9897  -17.7677    8.0307 O   0  0  0  0  0  0  0  0  0  0  0  0
   10.7453  -11.0514    8.8866 N   0  0  0  0  0  0  0  0  0  0  0  0
   14.5163   -9.3180    9.6051 H   0  0  0  0  0  0  0  0  0  0  0  0
   13.7206  -10.6507    8.7528 H   0  0  0  0  0  0  0  0  0  0  0  0
   13.5833   -8.9986    8.1322 H   0  0  0  0  0  0  0  0  0  0  0  0
   12.4347   -9.9943   10.8000 H   0  0  0  0  0  0  0  0  0  0  0  0
   12.3276   -8.3287   10.1911 H   0  0  0  0  0  0  0  0  0  0  0  0
   10.0599   -7.8889    8.6432 H   0  0  0  0  0  0  0  0  0  0  0  0
    8.4761  -12.0081    6.6352 H   0  0  0  0  0  0  0  0  0  0  0  0
    7.8365  -12.2389    8.2638 H   0  0  0  0  0  0  0  0  0  0  0  0
    7.3741  -14.1461    7.5087 H   0  0  0  0  0  0  0  0  0  0  0  0
    9.1225  -16.2738    6.6575 H   0  0  0  0  0  0  0  0  0  0  0  0
    9.8661  -16.3554    8.9009 H   0  0  0  0  0  0  0  0  0  0  0  0
    8.8335  -17.7724    8.6737 H   0  0  0  0  0  0  0  0  0  0  0  0
    8.2294  -16.3276    9.5189 H   0  0  0  0  0  0  0  0  0  0  0  0
    6.7754  -16.3267    5.8846 H   0  0  0  0  0  0  0  0  0  0  0  0
    7.3772  -17.8414    6.5526 H   0  0  0  0  0  0  0  0  0  0  0  0
    4.9045  -16.8069    7.0861 H   0  0  0  0  0  0  0  0  0  0  0  0
    3.7933  -16.6331    9.4957 H   0  0  0  0  0  0  0  0  0  0  0  0
    4.1981  -19.3650   10.4933 H   0  0  0  0  0  0  0  0  0  0  0  0
    3.1753  -18.0705   11.1009 H   0  0  0  0  0  0  0  0  0  0  0  0
    1.4493  -19.5323   10.3620 H   0  0  0  0  0  0  0  0  0  0  0  0
    2.5183  -20.2477    9.1408 H   0  0  0  0  0  0  0  0  0  0  0  0
    1.1956  -18.7944    7.7615 H   0  0  0  0  0  0  0  0  0  0  0  0
    1.1822  -17.5086    8.9980 H   0  0  0  0  0  0  0  0  0  0  0  0
   11.2083  -11.9090    9.1675 H   0  0  0  0  0  0  0  0  0  0  0  0
  1  2  1  0
  2  3  1  0
  3  4  2  0
  4  5  1  0
  5  6  2  0
  6  7  1  0
  7  8  1  0
  8  9  2  0
  8 10  1  0
 10 11  1  0
 11 12  1  0
 11 13  1  0
 13 14  1  0
 14 15  1  0
 15 16  2  0
 15 17  1  0
 17 18  1  0
 18 19  1  0
 19 20  1  0
 20 21  1  0
  6 22  1  0
 22  3  1  0
 21 17  1  0
  1 23  1  0
  1 24  1  0
  1 25  1  0
  2 26  1  0
  2 27  1  0
  4 28  1  0
  7 29  1  0
  7 30  1  0
 10 31  1  0
 11 32  1  0
 12 33  1  0
 12 34  1  0
 12 35  1  0
 13 36  1  0
 13 37  1  0
 14 38  1  0
 17 39  1  0
 18 40  1  0
 18 41  1  0
 19 42  1  0
 19 43  1  0
 20 44  1  0
 20 45  1  0
 22 46  1  0
M  END
>  <Energy>  (1103) 
55.738274014274374

>  <compound_id>  (1103) 
6413

>  <target_id>  (1103) 
1

>  <reference_id>  (1103) 
114

>  <inspiration_ids>  (1103) 
[114, 28]

>  <energy_score>  (1103) 
-23.42484165786749

>  <distance_score>  (1103) 
14.214246202508683

>  <path>  (1103) 
/opt/xchem-fragalysis-2/maxwin/BulkDock/SCRATCH/511018/C6413-P114/C6413-P114.minimised.mol

>  <scratch_subdir>  (1103) 
/opt/xchem-fragalysis-2/maxwin/BulkDock/SCRATCH/511018/C6413-P114

>  <fragmenstein_runtime>  (1103) 
31.2248957157135

>  <fragmenstein_outcome>  (1103) 
too moved

>  <fragmenstein_mode>  (1103) 
expansion

>  <fragmenstein_error>  (1103) 


$$$$
C6413-P28
     RDKit          3D

 46 47  0  0  0  0  0  0  0  0999 V2000
   10.0370   -3.4698   15.2740 C   0  0  0  0  0  0  0  0  0  0  0  0
    8.3777   -3.6978   15.4921 C   0  0  0  0  0  0  0  0  0  0  0  0
    7.4640   -5.4767   15.8049 C   0  0  0  0  0  0  0  0  0  0  0  0
    8.0211   -6.4911   15.0478 C   0  0  0  0  0  0  0  0  0  0  0  0
    7.1729   -7.5478   14.7247 N   0  0  0  0  0  0  0  0  0  0  0  0
    6.0277   -7.2185   14.3240 C   0  0  0  0  0  0  0  0  0  0  0  0
    4.6192   -8.2952   13.6260 C   0  0  0  0  0  0  0  0  0  0  0  0
    3.7403  -10.0210   13.4709 C   0  0  0  0  0  0  0  0  0  0  0  0
    3.9962  -10.7142   14.4618 O   0  0  0  0  0  0  0  0  0  0  0  0
    2.5276  -10.3273   11.9936 N   0  0  0  0  0  0  0  0  0  0  0  0
    1.2068  -11.6957   11.6517 C   0  0  0  0  0  0  0  0  0  0  0  0
   -0.1440  -11.4986   12.2601 C   0  0  0  0  0  0  0  0  0  0  0  0
    0.6439  -13.5358   11.7557 C   0  0  0  0  0  0  0  0  0  0  0  0
   -0.8520  -14.2125   12.2451 N   0  0  0  0  0  0  0  0  0  0  0  0
   -2.1809  -14.8819   11.3115 C   0  0  0  0  0  0  0  0  0  0  0  0
   -2.2768  -15.0776   10.1132 O   0  0  0  0  0  0  0  0  0  0  0  0
   -3.8959  -15.2845   12.2599 C   0  0  0  0  0  0  0  0  0  0  0  0
   -4.4768  -15.7604   13.7090 C   0  0  0  0  0  0  0  0  0  0  0  0
   -5.9502  -15.4831   13.5153 C   0  0  0  0  0  0  0  0  0  0  0  0
   -6.1657  -16.0656   12.1534 C   0  0  0  0  0  0  0  0  0  0  0  0
   -4.9230  -15.9864   11.4379 O   0  0  0  0  0  0  0  0  0  0  0  0
    6.2145   -6.2139   15.8016 N   0  0  0  0  0  0  0  0  0  0  0  0
   10.5168   -4.1210   14.5449 H   0  0  0  0  0  0  0  0  0  0  0  0
   10.1740   -2.4343   14.9369 H   0  0  0  0  0  0  0  0  0  0  0  0
   10.6666   -3.5774   16.1679 H   0  0  0  0  0  0  0  0  0  0  0  0
    8.0356   -3.1421   14.5815 H   0  0  0  0  0  0  0  0  0  0  0  0
    7.9153   -2.8436   15.9714 H   0  0  0  0  0  0  0  0  0  0  0  0
    9.0461   -6.8180   15.0037 H   0  0  0  0  0  0  0  0  0  0  0  0
    5.2260   -9.0198   14.1703 H   0  0  0  0  0  0  0  0  0  0  0  0
    3.9043   -7.7121   14.1786 H   0  0  0  0  0  0  0  0  0  0  0  0
    2.4883   -9.5535   11.4047 H   0  0  0  0  0  0  0  0  0  0  0  0
    0.8725  -11.0288   10.8822 H   0  0  0  0  0  0  0  0  0  0  0  0
   -0.2905  -12.0931   13.1489 H   0  0  0  0  0  0  0  0  0  0  0  0
   -0.5540  -10.5626   12.5086 H   0  0  0  0  0  0  0  0  0  0  0  0
   -0.7837  -11.8108   11.4639 H   0  0  0  0  0  0  0  0  0  0  0  0
    1.2258  -14.3810   11.4388 H   0  0  0  0  0  0  0  0  0  0  0  0
    0.9897  -13.5903   12.7840 H   0  0  0  0  0  0  0  0  0  0  0  0
   -1.0578  -14.2623   13.2285 H   0  0  0  0  0  0  0  0  0  0  0  0
   -4.0917  -14.2812   12.6799 H   0  0  0  0  0  0  0  0  0  0  0  0
   -4.0939  -15.1961   14.5675 H   0  0  0  0  0  0  0  0  0  0  0  0
   -4.3131  -16.8185   13.9058 H   0  0  0  0  0  0  0  0  0  0  0  0
   -6.6166  -15.8805   14.2726 H   0  0  0  0  0  0  0  0  0  0  0  0
   -6.1297  -14.4006   13.4946 H   0  0  0  0  0  0  0  0  0  0  0  0
   -6.9278  -15.5172   11.6012 H   0  0  0  0  0  0  0  0  0  0  0  0
   -6.4379  -17.1186   12.2297 H   0  0  0  0  0  0  0  0  0  0  0  0
    5.4194   -6.0522   16.4113 H   0  0  0  0  0  0  0  0  0  0  0  0
  1  2  1  0
  2  3  1  0
  3  4  2  0
  4  5  1  0
  5  6  2  0
  6  7  1  0
  7  8  1  0
  8  9  2  0
  8 10  1  0
 10 11  1  0
 11 12  1  0
 11 13  1  0
 13 14  1  0
 14 15  1  0
 15 16  2  0
 15 17  1  0
 17 18  1  0
 18 19  1  0
 19 20  1  0
 20 21  1  0
  6 22  1  0
 22  3  1  0
 21 17  1  0
  1 23  1  0
  1 24  1  0
  1 25  1  0
  2 26  1  0
  2 27  1  0
  4 28  1  0
  7 29  1  0
  7 30  1  0
 10 31  1  0
 11 32  1  0
 12 33  1  0
 12 34  1  0
 12 35  1  0
 13 36  1  0
 13 37  1  0
 14 38  1  0
 17 39  1  0
 18 40  1  0
 18 41  1  0
 19 42  1  0
 19 43  1  0
 20 44  1  0
 20 45  1  0
 22 46  1  0
M  END
>  <Energy>  (1104) 
897.28671715161158

>  <compound_id>  (1104) 
6413

>  <target_id>  (1104) 
1

>  <reference_id>  (1104) 
28

>  <inspiration_ids>  (1104) 
[114, 28]

>  <energy_score>  (1104) 
818.1236014794656

>  <distance_score>  (1104) 
9.808073933539724

>  <path>  (1104) 
/opt/xchem-fragalysis-2/maxwin/BulkDock/SCRATCH/511018/C6413-P28/C6413-P28.minimised.mol

>  <scratch_subdir>  (1104) 
/opt/xchem-fragalysis-2/maxwin/BulkDock/SCRATCH/511018/C6413-P28

>  <fragmenstein_runtime>  (1104) 
31.359631776809692

>  <fragmenstein_outcome>  (1104) 
too moved

>  <fragmenstein_mode>  (1104) 
expansion

>  <fragmenstein_error>  (1104) 


$$$$
C6414-P114
     RDKit          3D

 47 49  0  0  0  0  0  0  0  0999 V2000
   -0.0589  -14.6539   12.6209 C   0  0  0  0  0  0  0  0  0  0  0  0
   -0.8073  -13.4267   13.4461 C   0  0  0  0  0  0  0  0  0  0  0  0
   -2.9665  -14.0649   13.7143 C   0  0  0  0  0  0  0  0  0  0  0  0
   -4.4286  -13.6612   13.9580 N   0  0  0  0  0  0  0  0  0  0  0  0
   -5.3176  -13.9463   15.0573 C   0  0  0  0  0  0  0  0  0  0  0  0
   -5.1189  -14.5026   16.0995 O   0  0  0  0  0  0  0  0  0  0  0  0
   -6.7485  -13.4984   14.6662 C   0  0  0  0  0  0  0  0  0  0  0  0
   -7.7752  -14.5618   15.0296 C   0  0  0  0  0  0  0  0  0  0  0  0
   -8.1989  -15.1679   13.7074 C   0  0  0  0  0  0  0  0  0  0  0  0
   -7.2616  -14.5678   12.6998 C   0  0  0  0  0  0  0  0  0  0  0  0
   -6.8929  -13.3025   13.2545 O   0  0  0  0  0  0  0  0  0  0  0  0
    0.8647  -12.4155   13.9546 N   0  0  0  0  0  0  0  0  0  0  0  0
    1.9984  -11.2293   12.9544 C   0  0  0  0  0  0  0  0  0  0  0  0
    1.8918  -10.8737   11.7559 O   0  0  0  0  0  0  0  0  0  0  0  0
    3.7595  -10.5055   13.8219 C   0  0  0  0  0  0  0  0  0  0  0  0
    4.8591   -8.8878   13.8358 C   0  0  0  0  0  0  0  0  0  0  0  0
    4.8794   -7.5932   13.9532 N   0  0  0  0  0  0  0  0  0  0  0  0
    6.2011   -6.9470   15.1702 C   0  0  0  0  0  0  0  0  0  0  0  0
    7.1880   -7.7541   15.0663 C   0  0  0  0  0  0  0  0  0  0  0  0
    6.5245   -8.3861   13.8823 N   0  0  0  0  0  0  0  0  0  0  0  0
   -0.5076  -12.1391   12.5557 C   0  0  0  0  0  0  0  0  0  0  0  0
   -0.3641  -11.4919   11.2369 C   0  0  0  0  0  0  0  0  0  0  0  0
    0.1557  -12.7434   11.4028 C   0  0  0  0  0  0  0  0  0  0  0  0
    0.2119  -15.5638   13.0425 H   0  0  0  0  0  0  0  0  0  0  0  0
   -0.5655  -15.0071   11.7117 H   0  0  0  0  0  0  0  0  0  0  0  0
    0.9419  -14.3681   12.4163 H   0  0  0  0  0  0  0  0  0  0  0  0
   -3.4377  -14.4477   12.7240 H   0  0  0  0  0  0  0  0  0  0  0  0
   -2.9845  -14.8185   14.6179 H   0  0  0  0  0  0  0  0  0  0  0  0
   -4.9684  -13.2425   13.1910 H   0  0  0  0  0  0  0  0  0  0  0  0
   -6.9407  -12.5493   15.1776 H   0  0  0  0  0  0  0  0  0  0  0  0
   -8.6322  -14.0789   15.5122 H   0  0  0  0  0  0  0  0  0  0  0  0
   -7.4077  -15.3145   15.7309 H   0  0  0  0  0  0  0  0  0  0  0  0
   -9.2238  -14.8520   13.4835 H   0  0  0  0  0  0  0  0  0  0  0  0
   -8.1667  -16.2590   13.6887 H   0  0  0  0  0  0  0  0  0  0  0  0
   -6.3707  -15.1885   12.5739 H   0  0  0  0  0  0  0  0  0  0  0  0
   -7.7150  -14.3998   11.7233 H   0  0  0  0  0  0  0  0  0  0  0  0
    1.2507  -12.5774   14.8768 H   0  0  0  0  0  0  0  0  0  0  0  0
    3.8410  -10.9141   14.8371 H   0  0  0  0  0  0  0  0  0  0  0  0
    4.6311  -11.0429   13.4070 H   0  0  0  0  0  0  0  0  0  0  0  0
    5.9208   -6.3607   16.0554 H   0  0  0  0  0  0  0  0  0  0  0  0
    8.1288   -7.9749   15.5562 H   0  0  0  0  0  0  0  0  0  0  0  0
    6.7621   -7.9176   13.0304 H   0  0  0  0  0  0  0  0  0  0  0  0
   -0.9194  -11.2402   12.9609 H   0  0  0  0  0  0  0  0  0  0  0  0
   -1.0180  -11.4677   10.4193 H   0  0  0  0  0  0  0  0  0  0  0  0
    0.3132  -10.6882   11.0631 H   0  0  0  0  0  0  0  0  0  0  0  0
    1.1892  -12.8088   11.1719 H   0  0  0  0  0  0  0  0  0  0  0  0
   -0.4576  -13.4937   10.9662 H   0  0  0  0  0  0  0  0  0  0  0  0
  1  2  1  0
  2  3  1  0
  3  4  1  0
  4  5  1  0
  5  6  2  0
  5  7  1  0
  7  8  1  0
  8  9  1  0
  9 10  1  0
 10 11  1  0
  2 12  1  0
 12 13  1  0
 13 14  2  0
 13 15  1  0
 15 16  1  0
 16 17  2  0
 17 18  1  0
 18 19  2  0
 19 20  1  0
  2 21  1  0
 21 22  1  0
 22 23  1  0
 11  7  1  0
 20 16  1  0
 23 21  1  0
  1 24  1  0
  1 25  1  0
  1 26  1  0
  3 27  1  0
  3 28  1  0
  4 29  1  0
  7 30  1  0
  8 31  1  0
  8 32  1  0
  9 33  1  0
  9 34  1  0
 10 35  1  0
 10 36  1  0
 12 37  1  0
 15 38  1  0
 15 39  1  0
 18 40  1  0
 19 41  1  0
 20 42  1  0
 21 43  1  0
 22 44  1  0
 22 45  1  0
 23 46  1  0
 23 47  1  0
M  END
>  <Energy>  (1105) 
1068.8229856694356

>  <compound_id>  (1105) 
6414

>  <target_id>  (1105) 
1

>  <reference_id>  (1105) 
114

>  <inspiration_ids>  (1105) 
[114, 28]

>  <energy_score>  (1105) 
964.8284559596098

>  <distance_score>  (1105) 
10.483014881459336

>  <path>  (1105) 
/opt/xchem-fragalysis-2/maxwin/BulkDock/SCRATCH/511018/C6414-P114/C6414-P114.minimised.mol

>  <scratch_subdir>  (1105) 
/opt/xchem-fragalysis-2/maxwin/BulkDock/SCRATCH/511018/C6414-P114

>  <fragmenstein_runtime>  (1105) 
41.019612073898315

>  <fragmenstein_outcome>  (1105) 
too moved

>  <fragmenstein_mode>  (1105) 
expansion

>  <fragmenstein_error>  (1105) 


$$$$
C6414-P28
     RDKit          3D

 47 49  0  0  0  0  0  0  0  0999 V2000
    0.9536  -16.2704   10.4170 C   0  0  0  0  0  0  0  0  0  0  0  0
    1.9591  -16.1112    9.1707 C   0  0  0  0  0  0  0  0  0  0  0  0
    2.9860  -17.4404    9.6644 C   0  0  0  0  0  0  0  0  0  0  0  0
    2.3699  -18.7099   10.1130 N   0  0  0  0  0  0  0  0  0  0  0  0
    1.9734  -19.8822    9.3743 C   0  0  0  0  0  0  0  0  0  0  0  0
    1.9991  -20.1114    8.1981 O   0  0  0  0  0  0  0  0  0  0  0  0
    1.5432  -21.0310   10.3709 C   0  0  0  0  0  0  0  0  0  0  0  0
    0.5138  -21.9888    9.7732 C   0  0  0  0  0  0  0  0  0  0  0  0
   -0.0400  -22.7320   10.9734 C   0  0  0  0  0  0  0  0  0  0  0  0
    0.3787  -21.8929   12.1679 C   0  0  0  0  0  0  0  0  0  0  0  0
    0.9925  -20.6947   11.6517 O   0  0  0  0  0  0  0  0  0  0  0  0
    3.0410  -14.8482    9.3873 N   0  0  0  0  0  0  0  0  0  0  0  0
    2.9612  -13.1390    8.9236 C   0  0  0  0  0  0  0  0  0  0  0  0
    2.1309  -12.5435    8.2688 O   0  0  0  0  0  0  0  0  0  0  0  0
    4.0032  -12.1447    9.4810 C   0  0  0  0  0  0  0  0  0  0  0  0
    4.8410  -10.6279    8.8263 C   0  0  0  0  0  0  0  0  0  0  0  0
    6.3323  -10.7446    8.6884 N   0  0  0  0  0  0  0  0  0  0  0  0
    6.8576   -9.7101    8.0071 C   0  0  0  0  0  0  0  0  0  0  0  0
    5.7794   -8.8951    7.9903 C   0  0  0  0  0  0  0  0  0  0  0  0
    4.7291   -9.6422    7.6976 N   0  0  0  0  0  0  0  0  0  0  0  0
    1.4127  -16.7421    7.9225 C   0  0  0  0  0  0  0  0  0  0  0  0
    1.1581  -16.2694    6.5337 C   0  0  0  0  0  0  0  0  0  0  0  0
    2.3059  -17.1916    6.7852 C   0  0  0  0  0  0  0  0  0  0  0  0
   -0.0298  -16.6250   10.1139 H   0  0  0  0  0  0  0  0  0  0  0  0
    1.2677  -17.0168   11.1386 H   0  0  0  0  0  0  0  0  0  0  0  0
    0.8297  -15.4061   11.0706 H   0  0  0  0  0  0  0  0  0  0  0  0
    3.5973  -17.1021   10.5087 H   0  0  0  0  0  0  0  0  0  0  0  0
    3.6664  -17.7089    8.8543 H   0  0  0  0  0  0  0  0  0  0  0  0
    2.1280  -18.8388   11.0955 H   0  0  0  0  0  0  0  0  0  0  0  0
    2.4720  -21.5853   10.5698 H   0  0  0  0  0  0  0  0  0  0  0  0
    0.9537  -22.6607    9.0294 H   0  0  0  0  0  0  0  0  0  0  0  0
   -0.2865  -21.4332    9.2718 H   0  0  0  0  0  0  0  0  0  0  0  0
    0.3845  -23.7390   11.0515 H   0  0  0  0  0  0  0  0  0  0  0  0
   -1.1266  -22.8491   10.9121 H   0  0  0  0  0  0  0  0  0  0  0  0
   -0.4573  -21.6272   12.8211 H   0  0  0  0  0  0  0  0  0  0  0  0
    1.1242  -22.4202   12.7734 H   0  0  0  0  0  0  0  0  0  0  0  0
    3.8711  -15.0369    9.8367 H   0  0  0  0  0  0  0  0  0  0  0  0
    3.4987  -11.6841   10.3397 H   0  0  0  0  0  0  0  0  0  0  0  0
    4.7905  -12.8306    9.7934 H   0  0  0  0  0  0  0  0  0  0  0  0
    7.9265   -9.5511    7.9844 H   0  0  0  0  0  0  0  0  0  0  0  0
    5.6512   -7.8876    8.3113 H   0  0  0  0  0  0  0  0  0  0  0  0
    3.8519   -9.5417    7.1969 H   0  0  0  0  0  0  0  0  0  0  0  0
    0.6902  -17.5070    8.2286 H   0  0  0  0  0  0  0  0  0  0  0  0
    0.3219  -16.7580    6.0675 H   0  0  0  0  0  0  0  0  0  0  0  0
    1.3035  -15.2508    6.2151 H   0  0  0  0  0  0  0  0  0  0  0  0
    2.2051  -18.2210    6.4509 H   0  0  0  0  0  0  0  0  0  0  0  0
    3.2981  -16.8000    6.6283 H   0  0  0  0  0  0  0  0  0  0  0  0
  1  2  1  0
  2  3  1  0
  3  4  1  0
  4  5  1  0
  5  6  2  0
  5  7  1  0
  7  8  1  0
  8  9  1  0
  9 10  1  0
 10 11  1  0
  2 12  1  0
 12 13  1  0
 13 14  2  0
 13 15  1  0
 15 16  1  0
 16 17  2  0
 17 18  1  0
 18 19  2  0
 19 20  1  0
  2 21  1  0
 21 22  1  0
 22 23  1  0
 11  7  1  0
 20 16  1  0
 23 21  1  0
  1 24  1  0
  1 25  1  0
  1 26  1  0
  3 27  1  0
  3 28  1  0
  4 29  1  0
  7 30  1  0
  8 31  1  0
  8 32  1  0
  9 33  1  0
  9 34  1  0
 10 35  1  0
 10 36  1  0
 12 37  1  0
 15 38  1  0
 15 39  1  0
 18 40  1  0
 19 41  1  0
 20 42  1  0
 21 43  1  0
 22 44  1  0
 22 45  1  0
 23 46  1  0
 23 47  1  0
M  END
>  <Energy>  (1106) 
306.00139136814448

>  <compound_id>  (1106) 
6414

>  <target_id>  (1106) 
1

>  <reference_id>  (1106) 
28

>  <inspiration_ids>  (1106) 
[114, 28]

>  <energy_score>  (1106) 
202.00686165830075

>  <distance_score>  (1106) 
12.654856187744388

>  <path>  (1106) 
/opt/xchem-fragalysis-2/maxwin/BulkDock/SCRATCH/511018/C6414-P28/C6414-P28.minimised.mol

>  <scratch_subdir>  (1106) 
/opt/xchem-fragalysis-2/maxwin/BulkDock/SCRATCH/511018/C6414-P28

>  <fragmenstein_runtime>  (1106) 
48.4832603931427

>  <fragmenstein_outcome>  (1106) 
too moved

>  <fragmenstein_mode>  (1106) 
expansion

>  <fragmenstein_error>  (1106) 


$$$$
C6415-P114
     RDKit          3D

 39 40  0  0  0  0  0  0  0  0999 V2000
   -6.5922  -13.6243   12.5228 C   0  0  0  0  0  0  0  0  0  0  0  0
   -5.2522  -14.5409   12.6357 C   0  0  0  0  0  0  0  0  0  0  0  0
   -3.3688  -14.3975   13.2012 C   0  0  0  0  0  0  0  0  0  0  0  0
   -1.3681  -13.7197   13.6547 N   0  0  0  0  0  0  0  0  0  0  0  0
   -0.2264  -12.4961   12.8041 C   0  0  0  0  0  0  0  0  0  0  0  0
   -0.4061  -11.9151   11.7334 O   0  0  0  0  0  0  0  0  0  0  0  0
    1.4806  -11.8031   13.7006 C   0  0  0  0  0  0  0  0  0  0  0  0
    3.3421  -10.6952   13.8925 C   0  0  0  0  0  0  0  0  0  0  0  0
    3.8301   -8.9665   13.7153 N   0  0  0  0  0  0  0  0  0  0  0  0
    4.6115   -7.9344   13.6658 C   0  0  0  0  0  0  0  0  0  0  0  0
    5.6167   -8.6932   14.1450 N   0  0  0  0  0  0  0  0  0  0  0  0
    4.9792  -10.4422   13.9588 C   0  0  0  0  0  0  0  0  0  0  0  0
    6.2033  -11.1400   13.4821 C   0  0  0  0  0  0  0  0  0  0  0  0
   -3.5559  -16.1075   14.4732 C   0  0  0  0  0  0  0  0  0  0  0  0
   -5.0748  -16.4112   14.9360 C   0  0  0  0  0  0  0  0  0  0  0  0
   -6.0835  -17.1104   13.6223 C   0  0  0  0  0  0  0  0  0  0  0  0
   -5.1871  -18.3218   13.6445 C   0  0  0  0  0  0  0  0  0  0  0  0
   -3.6761  -17.5666   14.5116 O   0  0  0  0  0  0  0  0  0  0  0  0
   -7.2408  -14.0616   11.7495 H   0  0  0  0  0  0  0  0  0  0  0  0
   -7.2108  -13.6375   13.4247 H   0  0  0  0  0  0  0  0  0  0  0  0
   -6.4180  -12.5938   12.1955 H   0  0  0  0  0  0  0  0  0  0  0  0
   -5.5242  -15.1522   11.7422 H   0  0  0  0  0  0  0  0  0  0  0  0
   -5.5211  -15.3849   13.1145 H   0  0  0  0  0  0  0  0  0  0  0  0
   -3.7164  -13.5488   13.6586 H   0  0  0  0  0  0  0  0  0  0  0  0
   -0.9964  -13.9650   14.5515 H   0  0  0  0  0  0  0  0  0  0  0  0
    1.0200  -11.9033   14.6240 H   0  0  0  0  0  0  0  0  0  0  0  0
    1.4981  -12.8676   14.0830 H   0  0  0  0  0  0  0  0  0  0  0  0
    4.6213   -6.9173   13.3203 H   0  0  0  0  0  0  0  0  0  0  0  0
    6.5932   -8.5222   13.8964 H   0  0  0  0  0  0  0  0  0  0  0  0
    7.1196  -10.6817   13.8832 H   0  0  0  0  0  0  0  0  0  0  0  0
    6.6841  -10.8216   12.5842 H   0  0  0  0  0  0  0  0  0  0  0  0
    6.0855  -12.2296   13.5078 H   0  0  0  0  0  0  0  0  0  0  0  0
   -3.0079  -15.7195   15.3427 H   0  0  0  0  0  0  0  0  0  0  0  0
   -4.6921  -16.7499   15.9674 H   0  0  0  0  0  0  0  0  0  0  0  0
   -5.9115  -16.0533   15.6116 H   0  0  0  0  0  0  0  0  0  0  0  0
   -7.1685  -17.0717   13.7781 H   0  0  0  0  0  0  0  0  0  0  0  0
   -6.2003  -16.7931   12.5824 H   0  0  0  0  0  0  0  0  0  0  0  0
   -4.7472  -19.1379   13.0687 H   0  0  0  0  0  0  0  0  0  0  0  0
   -6.0302  -18.7288   14.0545 H   0  0  0  0  0  0  0  0  0  0  0  0
  1  2  1  0
  2  3  1  0
  3  4  1  0
  4  5  1  0
  5  6  2  0
  5  7  1  0
  7  8  1  0
  8  9  1  0
  9 10  2  0
 10 11  1  0
 11 12  1  0
 12 13  1  0
  3 14  1  0
 14 15  1  0
 15 16  1  0
 16 17  1  0
 17 18  1  0
 12  8  2  0
 18 14  1  0
  1 19  1  0
  1 20  1  0
  1 21  1  0
  2 22  1  0
  2 23  1  0
  3 24  1  0
  4 25  1  0
  7 26  1  0
  7 27  1  0
 10 28  1  0
 11 29  1  0
 13 30  1  0
 13 31  1  0
 13 32  1  0
 14 33  1  0
 15 34  1  0
 15 35  1  0
 16 36  1  0
 16 37  1  0
 17 38  1  0
 17 39  1  0
M  END
>  <Energy>  (1107) 
1386.8448938622159

>  <compound_id>  (1107) 
6415

>  <target_id>  (1107) 
1

>  <reference_id>  (1107) 
114

>  <inspiration_ids>  (1107) 
[114, 28]

>  <energy_score>  (1107) 
1333.850961741069

>  <distance_score>  (1107) 
11.024106813172407

>  <path>  (1107) 
/opt/xchem-fragalysis-2/maxwin/BulkDock/SCRATCH/511018/C6415-P114/C6415-P114.minimised.mol

>  <scratch_subdir>  (1107) 
/opt/xchem-fragalysis-2/maxwin/BulkDock/SCRATCH/511018/C6415-P114

>  <fragmenstein_runtime>  (1107) 
19.107252836227417

>  <fragmenstein_outcome>  (1107) 
too moved

>  <fragmenstein_mode>  (1107) 
expansion

>  <fragmenstein_error>  (1107) 


$$$$
C6415-P28
     RDKit          3D

 39 40  0  0  0  0  0  0  0  0999 V2000
   -2.3578   -6.2671    8.3925 C   0  0  0  0  0  0  0  0  0  0  0  0
   -1.0060   -6.7373    8.9365 C   0  0  0  0  0  0  0  0  0  0  0  0
   -0.6472   -8.2306    8.8369 C   0  0  0  0  0  0  0  0  0  0  0  0
    0.7034   -8.4596    9.6591 N   0  0  0  0  0  0  0  0  0  0  0  0
    1.2249   -9.8120   10.6699 C   0  0  0  0  0  0  0  0  0  0  0  0
    0.5705  -10.7919   10.9887 O   0  0  0  0  0  0  0  0  0  0  0  0
    2.9996  -10.0147   11.2788 C   0  0  0  0  0  0  0  0  0  0  0  0
    4.2664   -8.8589   11.5376 C   0  0  0  0  0  0  0  0  0  0  0  0
    4.0242   -7.5020   11.2734 N   0  0  0  0  0  0  0  0  0  0  0  0
    5.1560   -6.8733   11.4029 C   0  0  0  0  0  0  0  0  0  0  0  0
    6.1341   -7.7108   11.8226 N   0  0  0  0  0  0  0  0  0  0  0  0
    5.5932   -8.9723   11.9654 C   0  0  0  0  0  0  0  0  0  0  0  0
    6.4449  -10.0710   12.4645 C   0  0  0  0  0  0  0  0  0  0  0  0
   -0.7410   -8.6891    7.2997 C   0  0  0  0  0  0  0  0  0  0  0  0
   -0.7955   -7.7604    6.0969 C   0  0  0  0  0  0  0  0  0  0  0  0
   -2.0937   -8.0898    5.3703 C   0  0  0  0  0  0  0  0  0  0  0  0
   -2.4192   -9.4761    5.8358 C   0  0  0  0  0  0  0  0  0  0  0  0
   -2.0192   -9.4358    7.1951 O   0  0  0  0  0  0  0  0  0  0  0  0
   -2.2299   -5.6383    7.5064 H   0  0  0  0  0  0  0  0  0  0  0  0
   -3.0285   -7.0913    8.1375 H   0  0  0  0  0  0  0  0  0  0  0  0
   -2.8646   -5.6464    9.1400 H   0  0  0  0  0  0  0  0  0  0  0  0
   -0.2175   -6.1618    8.4318 H   0  0  0  0  0  0  0  0  0  0  0  0
   -0.9279   -6.3859    9.9724 H   0  0  0  0  0  0  0  0  0  0  0  0
   -1.3327   -8.9606    9.2178 H   0  0  0  0  0  0  0  0  0  0  0  0
    1.4160   -7.7594    9.6405 H   0  0  0  0  0  0  0  0  0  0  0  0
    3.4345  -10.7625   10.5919 H   0  0  0  0  0  0  0  0  0  0  0  0
    2.7563  -10.4814   12.1803 H   0  0  0  0  0  0  0  0  0  0  0  0
    5.2847   -5.8251   11.1891 H   0  0  0  0  0  0  0  0  0  0  0  0
    7.1009   -7.4635   11.9807 H   0  0  0  0  0  0  0  0  0  0  0  0
    5.9277  -10.6117   13.2601 H   0  0  0  0  0  0  0  0  0  0  0  0
    6.6612  -10.7782   11.6577 H   0  0  0  0  0  0  0  0  0  0  0  0
    7.3972   -9.7088   12.8641 H   0  0  0  0  0  0  0  0  0  0  0  0
    0.0991   -9.3601    7.0780 H   0  0  0  0  0  0  0  0  0  0  0  0
   -0.6894   -6.6971    6.3113 H   0  0  0  0  0  0  0  0  0  0  0  0
    0.0486   -7.9945    5.4337 H   0  0  0  0  0  0  0  0  0  0  0  0
   -2.0060   -8.0142    4.2829 H   0  0  0  0  0  0  0  0  0  0  0  0
   -2.8758   -7.3931    5.6920 H   0  0  0  0  0  0  0  0  0  0  0  0
   -3.4824   -9.7167    5.7584 H   0  0  0  0  0  0  0  0  0  0  0  0
   -1.8337  -10.2343    5.3051 H   0  0  0  0  0  0  0  0  0  0  0  0
  1  2  1  0
  2  3  1  0
  3  4  1  0
  4  5  1  0
  5  6  2  0
  5  7  1  0
  7  8  1  0
  8  9  1  0
  9 10  2  0
 10 11  1  0
 11 12  1  0
 12 13  1  0
  3 14  1  0
 14 15  1  0
 15 16  1  0
 16 17  1  0
 17 18  1  0
 12  8  2  0
 18 14  1  0
  1 19  1  0
  1 20  1  0
  1 21  1  0
  2 22  1  0
  2 23  1  0
  3 24  1  0
  4 25  1  0
  7 26  1  0
  7 27  1  0
 10 28  1  0
 11 29  1  0
 13 30  1  0
 13 31  1  0
 13 32  1  0
 14 33  1  0
 15 34  1  0
 15 35  1  0
 16 36  1  0
 16 37  1  0
 17 38  1  0
 17 39  1  0
M  END
>  <Energy>  (1108) 
175.76508946446748

>  <compound_id>  (1108) 
6415

>  <target_id>  (1108) 
1

>  <reference_id>  (1108) 
28

>  <inspiration_ids>  (1108) 
[114, 28]

>  <energy_score>  (1108) 
122.77115734332392

>  <distance_score>  (1108) 
16.019631982961428

>  <path>  (1108) 
/opt/xchem-fragalysis-2/maxwin/BulkDock/SCRATCH/511018/C6415-P28/C6415-P28.minimised.mol

>  <scratch_subdir>  (1108) 
/opt/xchem-fragalysis-2/maxwin/BulkDock/SCRATCH/511018/C6415-P28

>  <fragmenstein_runtime>  (1108) 
21.550593614578247

>  <fragmenstein_outcome>  (1108) 
too moved

>  <fragmenstein_mode>  (1108) 
expansion

>  <fragmenstein_error>  (1108) 


$$$$
C6416-P114
     RDKit          3D

 46 47  0  0  0  0  0  0  0  0999 V2000
    1.6956  -13.0510   15.3477 C   0  0  0  0  0  0  0  0  0  0  0  0
    0.6865  -13.1862   13.6941 C   0  0  0  0  0  0  0  0  0  0  0  0
   -1.1448  -13.8314   13.9627 C   0  0  0  0  0  0  0  0  0  0  0  0
   -3.1865  -14.1946   13.6709 N   0  0  0  0  0  0  0  0  0  0  0  0
   -4.2120  -15.4031   14.3424 C   0  0  0  0  0  0  0  0  0  0  0  0
   -3.9332  -16.2081   15.2005 O   0  0  0  0  0  0  0  0  0  0  0  0
   -5.9486  -15.7641   13.6655 C   0  0  0  0  0  0  0  0  0  0  0  0
   -6.7267  -17.4919   13.0338 C   0  0  0  0  0  0  0  0  0  0  0  0
   -6.6509  -19.3541   12.2882 C   0  0  0  0  0  0  0  0  0  0  0  0
   -7.1971  -21.0192   12.8385 C   0  0  0  0  0  0  0  0  0  0  0  0
   -8.4039  -21.5997   12.0206 C   0  0  0  0  0  0  0  0  0  0  0  0
   -8.7120  -20.3564   11.2568 C   0  0  0  0  0  0  0  0  0  0  0  0
   -7.4985  -19.5390   11.1381 O   0  0  0  0  0  0  0  0  0  0  0  0
    1.4609  -11.7872   13.5379 C   0  0  0  0  0  0  0  0  0  0  0  0
    3.0461  -10.6345   13.8612 N   0  0  0  0  0  0  0  0  0  0  0  0
    4.4486  -10.8708   13.8564 C   0  0  0  0  0  0  0  0  0  0  0  0
    5.0877  -11.8816   13.7431 O   0  0  0  0  0  0  0  0  0  0  0  0
    4.9577   -9.2174   13.9309 C   0  0  0  0  0  0  0  0  0  0  0  0
    6.0153   -8.1555   13.9775 C   0  0  0  0  0  0  0  0  0  0  0  0
    5.4836   -6.9522   13.9664 N   0  0  0  0  0  0  0  0  0  0  0  0
    4.6383   -6.9721   13.0620 C   0  0  0  0  0  0  0  0  0  0  0  0
    4.1795   -8.2166   13.2823 N   0  0  0  0  0  0  0  0  0  0  0  0
    2.5613  -12.4642   15.3943 H   0  0  0  0  0  0  0  0  0  0  0  0
    1.4307  -12.4540   16.0882 H   0  0  0  0  0  0  0  0  0  0  0  0
    1.4207  -13.8937   16.1646 H   0  0  0  0  0  0  0  0  0  0  0  0
    1.0242  -13.9614   12.9891 H   0  0  0  0  0  0  0  0  0  0  0  0
   -1.0992  -12.7734   13.6915 H   0  0  0  0  0  0  0  0  0  0  0  0
   -0.7402  -14.3800   13.0681 H   0  0  0  0  0  0  0  0  0  0  0  0
   -3.6729  -13.7248   12.9096 H   0  0  0  0  0  0  0  0  0  0  0  0
   -6.1143  -15.0645   12.8382 H   0  0  0  0  0  0  0  0  0  0  0  0
   -6.6195  -15.4759   14.4844 H   0  0  0  0  0  0  0  0  0  0  0  0
   -6.7183  -17.0657   12.0426 H   0  0  0  0  0  0  0  0  0  0  0  0
   -5.9643  -17.9090   13.6351 H   0  0  0  0  0  0  0  0  0  0  0  0
   -5.5863  -19.5961   12.2522 H   0  0  0  0  0  0  0  0  0  0  0  0
   -6.3046  -21.5688   12.8481 H   0  0  0  0  0  0  0  0  0  0  0  0
   -7.3750  -21.3526   13.8513 H   0  0  0  0  0  0  0  0  0  0  0  0
   -8.1960  -22.4985   11.4420 H   0  0  0  0  0  0  0  0  0  0  0  0
   -9.2698  -21.9369   12.6103 H   0  0  0  0  0  0  0  0  0  0  0  0
   -9.4800  -19.7648   11.7591 H   0  0  0  0  0  0  0  0  0  0  0  0
   -9.0986  -20.5843   10.2597 H   0  0  0  0  0  0  0  0  0  0  0  0
    0.8847  -11.7622   14.3906 H   0  0  0  0  0  0  0  0  0  0  0  0
    1.1007  -11.4072   12.5103 H   0  0  0  0  0  0  0  0  0  0  0  0
    2.8828   -9.6931   14.0605 H   0  0  0  0  0  0  0  0  0  0  0  0
    6.9871   -8.1143   14.3646 H   0  0  0  0  0  0  0  0  0  0  0  0
    4.2925   -6.2022   12.3773 H   0  0  0  0  0  0  0  0  0  0  0  0
    3.4895   -8.5679   12.6449 H   0  0  0  0  0  0  0  0  0  0  0  0
  1  2  1  0
  2  3  1  0
  3  4  1  0
  4  5  1  0
  5  6  2  0
  5  7  1  0
  7  8  1  0
  8  9  1  0
  9 10  1  0
 10 11  1  0
 11 12  1  0
 12 13  1  0
  2 14  1  0
 14 15  1  0
 15 16  1  0
 16 17  2  0
 16 18  1  0
 18 19  2  0
 19 20  1  0
 20 21  2  0
 21 22  1  0
 13  9  1  0
 22 18  1  0
  1 23  1  0
  1 24  1  0
  1 25  1  0
  2 26  1  0
  3 27  1  0
  3 28  1  0
  4 29  1  0
  7 30  1  0
  7 31  1  0
  8 32  1  0
  8 33  1  0
  9 34  1  0
 10 35  1  0
 10 36  1  0
 11 37  1  0
 11 38  1  0
 12 39  1  0
 12 40  1  0
 14 41  1  0
 14 42  1  0
 15 43  1  0
 19 44  1  0
 21 45  1  0
 22 46  1  0
M  END
>  <Energy>  (1109) 
911.4998059914027

>  <compound_id>  (1109) 
6416

>  <target_id>  (1109) 
1

>  <reference_id>  (1109) 
114

>  <inspiration_ids>  (1109) 
[114, 28]

>  <energy_score>  (1109) 
924.7611161686013

>  <distance_score>  (1109) 
8.934458589902789

>  <path>  (1109) 
/opt/xchem-fragalysis-2/maxwin/BulkDock/SCRATCH/511018/C6416-P114/C6416-P114.minimised.mol

>  <scratch_subdir>  (1109) 
/opt/xchem-fragalysis-2/maxwin/BulkDock/SCRATCH/511018/C6416-P114

>  <fragmenstein_runtime>  (1109) 
24.20101761817932

>  <fragmenstein_outcome>  (1109) 
too moved

>  <fragmenstein_mode>  (1109) 
expansion

>  <fragmenstein_error>  (1109) 


$$$$
C6416-P28
     RDKit          3D

 46 47  0  0  0  0  0  0  0  0999 V2000
    5.0769  -10.9903   13.8616 C   0  0  0  0  0  0  0  0  0  0  0  0
    3.8234  -10.0543   13.2549 C   0  0  0  0  0  0  0  0  0  0  0  0
    2.1359  -10.6793   12.0398 C   0  0  0  0  0  0  0  0  0  0  0  0
    0.3545  -11.6423   11.9030 N   0  0  0  0  0  0  0  0  0  0  0  0
   -0.0909  -13.4484   11.9162 C   0  0  0  0  0  0  0  0  0  0  0  0
    0.7665  -14.2618   12.1125 O   0  0  0  0  0  0  0  0  0  0  0  0
   -1.9109  -14.4278   11.5563 C   0  0  0  0  0  0  0  0  0  0  0  0
   -3.7191  -14.4264   12.7099 C   0  0  0  0  0  0  0  0  0  0  0  0
   -5.4857  -14.7079   12.9852 C   0  0  0  0  0  0  0  0  0  0  0  0
   -5.9547  -15.6338   14.0748 C   0  0  0  0  0  0  0  0  0  0  0  0
   -7.4783  -15.4765   14.0138 C   0  0  0  0  0  0  0  0  0  0  0  0
   -7.7096  -14.5904   12.8158 C   0  0  0  0  0  0  0  0  0  0  0  0
   -6.5444  -14.8388   12.0129 O   0  0  0  0  0  0  0  0  0  0  0  0
    4.6947   -8.3870   13.9562 C   0  0  0  0  0  0  0  0  0  0  0  0
    6.0657   -7.0852   13.8556 N   0  0  0  0  0  0  0  0  0  0  0  0
    7.6382   -6.7122   14.9840 C   0  0  0  0  0  0  0  0  0  0  0  0
    8.0678   -7.3047   15.9102 O   0  0  0  0  0  0  0  0  0  0  0  0
    8.6639   -4.9676   14.6664 C   0  0  0  0  0  0  0  0  0  0  0  0
   10.3214   -4.3615   14.7978 C   0  0  0  0  0  0  0  0  0  0  0  0
   10.6120   -3.0282   14.8732 N   0  0  0  0  0  0  0  0  0  0  0  0
    9.4652   -2.4512   14.9935 C   0  0  0  0  0  0  0  0  0  0  0  0
    8.4118   -3.3315   15.1382 N   0  0  0  0  0  0  0  0  0  0  0  0
    6.0103  -10.4922   13.9173 H   0  0  0  0  0  0  0  0  0  0  0  0
    5.4616  -11.8755   13.4052 H   0  0  0  0  0  0  0  0  0  0  0  0
    4.7236  -11.2860   14.8390 H   0  0  0  0  0  0  0  0  0  0  0  0
    3.3355  -10.1925   14.2184 H   0  0  0  0  0  0  0  0  0  0  0  0
    2.5998  -11.1061   11.1373 H   0  0  0  0  0  0  0  0  0  0  0  0
    1.8432  -11.0037   13.0202 H   0  0  0  0  0  0  0  0  0  0  0  0
   -0.4921  -11.1042   11.8091 H   0  0  0  0  0  0  0  0  0  0  0  0
   -2.2864  -14.6532   10.5358 H   0  0  0  0  0  0  0  0  0  0  0  0
   -1.3546  -15.3570   11.4512 H   0  0  0  0  0  0  0  0  0  0  0  0
   -4.0934  -13.4015   12.8397 H   0  0  0  0  0  0  0  0  0  0  0  0
   -3.5763  -14.4499   13.8293 H   0  0  0  0  0  0  0  0  0  0  0  0
   -5.7126  -13.7194   13.4345 H   0  0  0  0  0  0  0  0  0  0  0  0
   -5.5360  -15.3934   15.0552 H   0  0  0  0  0  0  0  0  0  0  0  0
   -5.7160  -16.6537   13.8075 H   0  0  0  0  0  0  0  0  0  0  0  0
   -7.8883  -15.0407   14.9279 H   0  0  0  0  0  0  0  0  0  0  0  0
   -7.9519  -16.4445   13.8351 H   0  0  0  0  0  0  0  0  0  0  0  0
   -8.6385  -14.7517   12.2847 H   0  0  0  0  0  0  0  0  0  0  0  0
   -7.7326  -13.5297   13.1023 H   0  0  0  0  0  0  0  0  0  0  0  0
    5.4877   -8.9594   14.2384 H   0  0  0  0  0  0  0  0  0  0  0  0
    4.1974   -7.7184   13.2818 H   0  0  0  0  0  0  0  0  0  0  0  0
    5.9899   -6.4481   13.0785 H   0  0  0  0  0  0  0  0  0  0  0  0
   11.1643   -5.0471   14.9100 H   0  0  0  0  0  0  0  0  0  0  0  0
    9.2967   -1.3827   15.0248 H   0  0  0  0  0  0  0  0  0  0  0  0
    7.4782   -2.9606   15.1942 H   0  0  0  0  0  0  0  0  0  0  0  0
  1  2  1  0
  2  3  1  0
  3  4  1  0
  4  5  1  0
  5  6  2  0
  5  7  1  0
  7  8  1  0
  8  9  1  0
  9 10  1  0
 10 11  1  0
 11 12  1  0
 12 13  1  0
  2 14  1  0
 14 15  1  0
 15 16  1  0
 16 17  2  0
 16 18  1  0
 18 19  2  0
 19 20  1  0
 20 21  2  0
 21 22  1  0
 13  9  1  0
 22 18  1  0
  1 23  1  0
  1 24  1  0
  1 25  1  0
  2 26  1  0
  3 27  1  0
  3 28  1  0
  4 29  1  0
  7 30  1  0
  7 31  1  0
  8 32  1  0
  8 33  1  0
  9 34  1  0
 10 35  1  0
 10 36  1  0
 11 37  1  0
 11 38  1  0
 12 39  1  0
 12 40  1  0
 14 41  1  0
 14 42  1  0
 15 43  1  0
 19 44  1  0
 21 45  1  0
 22 46  1  0
M  END
>  <Energy>  (1110) 
1171.5457793755552

>  <compound_id>  (1110) 
6416

>  <target_id>  (1110) 
1

>  <reference_id>  (1110) 
28

>  <inspiration_ids>  (1110) 
[114, 28]

>  <energy_score>  (1110) 
1184.8070895527326

>  <distance_score>  (1110) 
9.637190183261069

>  <path>  (1110) 
/opt/xchem-fragalysis-2/maxwin/BulkDock/SCRATCH/511018/C6416-P28/C6416-P28.minimised.mol

>  <scratch_subdir>  (1110) 
/opt/xchem-fragalysis-2/maxwin/BulkDock/SCRATCH/511018/C6416-P28

>  <fragmenstein_runtime>  (1110) 
26.667965173721313

>  <fragmenstein_outcome>  (1110) 
too moved

>  <fragmenstein_mode>  (1110) 
expansion

>  <fragmenstein_error>  (1110) 


$$$$
C6417-P114
     RDKit          3D

 49 50  0  0  0  0  0  0  0  0999 V2000
    0.5164  -12.3012   13.2895 C   0  0  0  0  0  0  0  0  0  0  0  0
    1.5520  -11.4261   11.9928 C   0  0  0  0  0  0  0  0  0  0  0  0
    0.5777  -13.2986   11.3951 C   0  0  0  0  0  0  0  0  0  0  0  0
   -1.1252  -14.3935   11.0224 N   0  0  0  0  0  0  0  0  0  0  0  0
   -1.4180  -15.9444   10.0468 C   0  0  0  0  0  0  0  0  0  0  0  0
   -0.5047  -16.6089    9.5412 O   0  0  0  0  0  0  0  0  0  0  0  0
   -3.3325  -16.7071    9.4674 C   0  0  0  0  0  0  0  0  0  0  0  0
   -5.1072  -17.8943    9.0697 C   0  0  0  0  0  0  0  0  0  0  0  0
   -6.7149  -18.4420   10.4750 C   0  0  0  0  0  0  0  0  0  0  0  0
   -8.1984  -19.7665   10.5363 C   0  0  0  0  0  0  0  0  0  0  0  0
   -8.1598  -20.6934   11.6437 C   0  0  0  0  0  0  0  0  0  0  0  0
   -6.8702  -20.1309   12.2975 C   0  0  0  0  0  0  0  0  0  0  0  0
   -6.6151  -18.7536   12.1259 O   0  0  0  0  0  0  0  0  0  0  0  0
    3.4368  -10.3647   12.5812 C   0  0  0  0  0  0  0  0  0  0  0  0
    4.1753   -8.7581   13.8077 N   0  0  0  0  0  0  0  0  0  0  0  0
    5.9557   -7.8156   13.9695 C   0  0  0  0  0  0  0  0  0  0  0  0
    6.8090   -8.1032   13.1741 O   0  0  0  0  0  0  0  0  0  0  0  0
    6.7721   -6.5199   15.4114 C   0  0  0  0  0  0  0  0  0  0  0  0
    8.1043   -6.7897   15.1925 C   0  0  0  0  0  0  0  0  0  0  0  0
    8.7486   -5.4234   14.3133 N   0  0  0  0  0  0  0  0  0  0  0  0
    8.4464   -3.8515   14.8004 C   0  0  0  0  0  0  0  0  0  0  0  0
    7.9318   -4.9386   15.8485 N   0  0  0  0  0  0  0  0  0  0  0  0
    9.7584   -4.0844   15.4600 C   0  0  0  0  0  0  0  0  0  0  0  0
   -0.5068  -11.9536   13.1966 H   0  0  0  0  0  0  0  0  0  0  0  0
    1.0793  -12.1783   14.1838 H   0  0  0  0  0  0  0  0  0  0  0  0
    0.3436  -13.3687   13.4068 H   0  0  0  0  0  0  0  0  0  0  0  0
    0.9318  -10.6959   11.4606 H   0  0  0  0  0  0  0  0  0  0  0  0
    0.8423  -14.1001   12.0769 H   0  0  0  0  0  0  0  0  0  0  0  0
   -0.2568  -12.5927   11.3991 H   0  0  0  0  0  0  0  0  0  0  0  0
   -1.9746  -14.0907   11.3933 H   0  0  0  0  0  0  0  0  0  0  0  0
   -3.8077  -15.7105    9.4499 H   0  0  0  0  0  0  0  0  0  0  0  0
   -2.9849  -16.8831    8.4305 H   0  0  0  0  0  0  0  0  0  0  0  0
   -4.6729  -18.8223    8.6493 H   0  0  0  0  0  0  0  0  0  0  0  0
   -5.6344  -17.3292    8.2832 H   0  0  0  0  0  0  0  0  0  0  0  0
   -6.7407  -17.3701   11.0054 H   0  0  0  0  0  0  0  0  0  0  0  0
   -9.1700  -19.4219   10.9747 H   0  0  0  0  0  0  0  0  0  0  0  0
   -8.6802  -20.1251    9.6144 H   0  0  0  0  0  0  0  0  0  0  0  0
   -8.2138  -21.7788   11.4695 H   0  0  0  0  0  0  0  0  0  0  0  0
   -9.1677  -20.6549   12.0823 H   0  0  0  0  0  0  0  0  0  0  0  0
   -5.7898  -20.3715   12.2660 H   0  0  0  0  0  0  0  0  0  0  0  0
   -7.0084  -20.7600   13.1722 H   0  0  0  0  0  0  0  0  0  0  0  0
    4.3577  -10.8649   12.9814 H   0  0  0  0  0  0  0  0  0  0  0  0
    3.1929   -9.9445   11.5183 H   0  0  0  0  0  0  0  0  0  0  0  0
    3.5386   -8.3634   14.4664 H   0  0  0  0  0  0  0  0  0  0  0  0
    8.8814   -7.5232   15.3094 H   0  0  0  0  0  0  0  0  0  0  0  0
    7.8246   -3.0790   14.3009 H   0  0  0  0  0  0  0  0  0  0  0  0
    9.8512   -2.8955   15.4135 H   0  0  0  0  0  0  0  0  0  0  0  0
   10.4106   -4.5777   14.6684 H   0  0  0  0  0  0  0  0  0  0  0  0
   10.4247   -4.2697   16.3743 H   0  0  0  0  0  0  0  0  0  0  0  0
  1  2  1  0
  2  3  1  0
  3  4  1  0
  4  5  1  0
  5  6  2  0
  5  7  1  0
  7  8  1  0
  8  9  1  0
  9 10  1  0
 10 11  1  0
 11 12  1  0
 12 13  1  0
  2 14  1  0
 14 15  1  0
 15 16  1  0
 16 17  2  0
 16 18  1  0
 18 19  2  0
 19 20  1  0
 20 21  2  0
 21 22  1  0
 22 23  1  0
 13  9  1  0
 22 18  1  0
  1 24  1  0
  1 25  1  0
  1 26  1  0
  2 27  1  0
  3 28  1  0
  3 29  1  0
  4 30  1  0
  7 31  1  0
  7 32  1  0
  8 33  1  0
  8 34  1  0
  9 35  1  0
 10 36  1  0
 10 37  1  0
 11 38  1  0
 11 39  1  0
 12 40  1  0
 12 41  1  0
 14 42  1  0
 14 43  1  0
 15 44  1  0
 19 45  1  0
 21 46  1  0
 23 47  1  0
 23 48  1  0
 23 49  1  0
M  END
>  <Energy>  (1111) 
2367.498787334488

>  <compound_id>  (1111) 
6417

>  <target_id>  (1111) 
1

>  <reference_id>  (1111) 
114

>  <inspiration_ids>  (1111) 
[114, 28]

>  <energy_score>  (1111) 
2367.967382380595

>  <distance_score>  (1111) 
7.807657311458141

>  <path>  (1111) 
/opt/xchem-fragalysis-2/maxwin/BulkDock/SCRATCH/511018/C6417-P114/C6417-P114.minimised.mol

>  <scratch_subdir>  (1111) 
/opt/xchem-fragalysis-2/maxwin/BulkDock/SCRATCH/511018/C6417-P114

>  <fragmenstein_runtime>  (1111) 
22.589935302734375

>  <fragmenstein_outcome>  (1111) 
too moved

>  <fragmenstein_mode>  (1111) 
expansion

>  <fragmenstein_error>  (1111) 


$$$$
C6417-P28
     RDKit          3D

 49 50  0  0  0  0  0  0  0  0999 V2000
    5.5497  -18.1476   12.5600 C   0  0  0  0  0  0  0  0  0  0  0  0
    5.7027  -17.0781   13.7199 C   0  0  0  0  0  0  0  0  0  0  0  0
    4.6831  -17.6512   14.8640 C   0  0  0  0  0  0  0  0  0  0  0  0
    3.6216  -18.5973   14.4237 N   0  0  0  0  0  0  0  0  0  0  0  0
    3.4991  -20.0455   14.5891 C   0  0  0  0  0  0  0  0  0  0  0  0
    4.1870  -20.8250   15.1912 O   0  0  0  0  0  0  0  0  0  0  0  0
    2.3056  -20.6327   13.7277 C   0  0  0  0  0  0  0  0  0  0  0  0
    1.7387  -22.0090   14.2379 C   0  0  0  0  0  0  0  0  0  0  0  0
    0.7485  -22.8163   13.3620 C   0  0  0  0  0  0  0  0  0  0  0  0
   -0.2079  -22.0543   12.4850 C   0  0  0  0  0  0  0  0  0  0  0  0
   -1.2918  -23.0712   12.1965 C   0  0  0  0  0  0  0  0  0  0  0  0
   -1.3452  -23.8904   13.4656 C   0  0  0  0  0  0  0  0  0  0  0  0
   -0.1072  -23.6655   14.1708 O   0  0  0  0  0  0  0  0  0  0  0  0
    5.6646  -15.1276   13.3448 C   0  0  0  0  0  0  0  0  0  0  0  0
    6.9065  -13.5842   13.5061 N   0  0  0  0  0  0  0  0  0  0  0  0
    8.5019  -13.4850   14.2158 C   0  0  0  0  0  0  0  0  0  0  0  0
    9.0899  -14.3597   14.8224 O   0  0  0  0  0  0  0  0  0  0  0  0
    9.4010  -12.3096   14.0390 C   0  0  0  0  0  0  0  0  0  0  0  0
   10.3922  -12.2921   13.0289 C   0  0  0  0  0  0  0  0  0  0  0  0
   11.4159  -11.4194   13.2505 N   0  0  0  0  0  0  0  0  0  0  0  0
   11.2730  -11.1287   14.5103 C   0  0  0  0  0  0  0  0  0  0  0  0
   10.0931  -11.5885   15.0228 N   0  0  0  0  0  0  0  0  0  0  0  0
    9.9402  -11.6718   16.4484 C   0  0  0  0  0  0  0  0  0  0  0  0
    5.4897  -19.1625   12.9667 H   0  0  0  0  0  0  0  0  0  0  0  0
    6.4193  -18.2230   11.8989 H   0  0  0  0  0  0  0  0  0  0  0  0
    4.6533  -17.9507   11.9624 H   0  0  0  0  0  0  0  0  0  0  0  0
    6.6917  -17.2860   14.1610 H   0  0  0  0  0  0  0  0  0  0  0  0
    5.2953  -18.2116   15.5815 H   0  0  0  0  0  0  0  0  0  0  0  0
    4.1973  -16.8539   15.4292 H   0  0  0  0  0  0  0  0  0  0  0  0
    2.9014  -18.2727   13.7746 H   0  0  0  0  0  0  0  0  0  0  0  0
    1.5069  -19.8906   13.6603 H   0  0  0  0  0  0  0  0  0  0  0  0
    2.7052  -20.7744   12.7160 H   0  0  0  0  0  0  0  0  0  0  0  0
    1.3426  -21.8875   15.2507 H   0  0  0  0  0  0  0  0  0  0  0  0
    2.5999  -22.6727   14.4030 H   0  0  0  0  0  0  0  0  0  0  0  0
    1.3389  -23.4930   12.7293 H   0  0  0  0  0  0  0  0  0  0  0  0
    0.2846  -21.6854   11.5808 H   0  0  0  0  0  0  0  0  0  0  0  0
   -0.6328  -21.2077   13.0252 H   0  0  0  0  0  0  0  0  0  0  0  0
   -2.2572  -22.6273   11.9395 H   0  0  0  0  0  0  0  0  0  0  0  0
   -0.9868  -23.7085   11.3580 H   0  0  0  0  0  0  0  0  0  0  0  0
   -1.4509  -24.9598   13.2602 H   0  0  0  0  0  0  0  0  0  0  0  0
   -2.1689  -23.5860   14.1168 H   0  0  0  0  0  0  0  0  0  0  0  0
    5.1882  -15.1753   12.3960 H   0  0  0  0  0  0  0  0  0  0  0  0
    5.5444  -15.4861   14.4052 H   0  0  0  0  0  0  0  0  0  0  0  0
    6.6471  -12.6846   13.1420 H   0  0  0  0  0  0  0  0  0  0  0  0
   10.3907  -12.9085   12.1368 H   0  0  0  0  0  0  0  0  0  0  0  0
   12.0191  -10.6479   15.1285 H   0  0  0  0  0  0  0  0  0  0  0  0
   10.7738  -11.1672   16.9478 H   0  0  0  0  0  0  0  0  0  0  0  0
    9.9833  -12.7270   16.7080 H   0  0  0  0  0  0  0  0  0  0  0  0
    9.0282  -11.1657   16.7484 H   0  0  0  0  0  0  0  0  0  0  0  0
  1  2  1  0
  2  3  1  0
  3  4  1  0
  4  5  1  0
  5  6  2  0
  5  7  1  0
  7  8  1  0
  8  9  1  0
  9 10  1  0
 10 11  1  0
 11 12  1  0
 12 13  1  0
  2 14  1  0
 14 15  1  0
 15 16  1  0
 16 17  2  0
 16 18  1  0
 18 19  2  0
 19 20  1  0
 20 21  2  0
 21 22  1  0
 22 23  1  0
 13  9  1  0
 22 18  1  0
  1 24  1  0
  1 25  1  0
  1 26  1  0
  2 27  1  0
  3 28  1  0
  3 29  1  0
  4 30  1  0
  7 31  1  0
  7 32  1  0
  8 33  1  0
  8 34  1  0
  9 35  1  0
 10 36  1  0
 10 37  1  0
 11 38  1  0
 11 39  1  0
 12 40  1  0
 12 41  1  0
 14 42  1  0
 14 43  1  0
 15 44  1  0
 19 45  1  0
 21 46  1  0
 23 47  1  0
 23 48  1  0
 23 49  1  0
M  END
>  <Energy>  (1112) 
243.36764962312606

>  <compound_id>  (1112) 
6417

>  <target_id>  (1112) 
1

>  <reference_id>  (1112) 
28

>  <inspiration_ids>  (1112) 
[114, 28]

>  <energy_score>  (1112) 
243.83624466920486

>  <distance_score>  (1112) 
11.504036655135582

>  <path>  (1112) 
/opt/xchem-fragalysis-2/maxwin/BulkDock/SCRATCH/511018/C6417-P28/C6417-P28.minimised.mol

>  <scratch_subdir>  (1112) 
/opt/xchem-fragalysis-2/maxwin/BulkDock/SCRATCH/511018/C6417-P28

>  <fragmenstein_runtime>  (1112) 
41.36519122123718

>  <fragmenstein_outcome>  (1112) 
too moved

>  <fragmenstein_mode>  (1112) 
expansion

>  <fragmenstein_error>  (1112) 


$$$$
C6418-P114
     RDKit          3D

 46 47  0  0  0  0  0  0  0  0999 V2000
   -3.1805   -9.6491   17.6084 C   0  0  0  0  0  0  0  0  0  0  0  0
   -1.7262  -10.2423   17.4741 C   0  0  0  0  0  0  0  0  0  0  0  0
   -2.1264  -12.4023   17.5570 C   0  0  0  0  0  0  0  0  0  0  0  0
   -2.3623  -14.0849   16.3593 N   0  0  0  0  0  0  0  0  0  0  0  0
   -3.6189  -15.5420   16.3901 C   0  0  0  0  0  0  0  0  0  0  0  0
   -4.4135  -15.6460   17.2844 O   0  0  0  0  0  0  0  0  0  0  0  0
   -4.0316  -17.0038   14.9494 C   0  0  0  0  0  0  0  0  0  0  0  0
   -5.5303  -18.0866   13.7391 C   0  0  0  0  0  0  0  0  0  0  0  0
   -6.3295  -19.6438   12.6014 C   0  0  0  0  0  0  0  0  0  0  0  0
   -7.1908  -21.2788   12.9940 C   0  0  0  0  0  0  0  0  0  0  0  0
   -8.3977  -21.5852   12.0516 C   0  0  0  0  0  0  0  0  0  0  0  0
   -8.4999  -20.2429   11.3992 C   0  0  0  0  0  0  0  0  0  0  0  0
   -7.2621  -19.3942   11.5573 O   0  0  0  0  0  0  0  0  0  0  0  0
   -0.4919   -8.6076   16.6387 C   0  0  0  0  0  0  0  0  0  0  0  0
   -0.4813   -7.4614   14.9208 N   0  0  0  0  0  0  0  0  0  0  0  0
    0.3523   -5.9309   14.4965 C   0  0  0  0  0  0  0  0  0  0  0  0
    1.1828   -5.2745   15.1247 O   0  0  0  0  0  0  0  0  0  0  0  0
   -0.0319   -5.2025   13.2518 C   0  0  0  0  0  0  0  0  0  0  0  0
    0.1321   -5.4357   11.8912 C   0  0  0  0  0  0  0  0  0  0  0  0
    0.1474   -4.2734   11.1553 N   0  0  0  0  0  0  0  0  0  0  0  0
    0.0534   -3.3284   12.0466 C   0  0  0  0  0  0  0  0  0  0  0  0
    0.0326   -1.6551   11.7948 Cl  0  0  0  0  0  0  0  0  0  0  0  0
   -0.0667   -3.8083   13.3053 N   0  0  0  0  0  0  0  0  0  0  0  0
   -3.6876   -9.5490   16.6490 H   0  0  0  0  0  0  0  0  0  0  0  0
   -3.1423   -8.6632   18.0829 H   0  0  0  0  0  0  0  0  0  0  0  0
   -3.7909  -10.2983   18.2443 H   0  0  0  0  0  0  0  0  0  0  0  0
   -1.4854  -10.1132   18.5267 H   0  0  0  0  0  0  0  0  0  0  0  0
   -2.5531  -12.4906   18.5416 H   0  0  0  0  0  0  0  0  0  0  0  0
   -1.1174  -12.7100   17.8331 H   0  0  0  0  0  0  0  0  0  0  0  0
   -1.7270  -14.2166   15.5916 H   0  0  0  0  0  0  0  0  0  0  0  0
   -3.0958  -17.1920   14.4939 H   0  0  0  0  0  0  0  0  0  0  0  0
   -3.8753  -17.7208   15.7942 H   0  0  0  0  0  0  0  0  0  0  0  0
   -6.0969  -17.2700   13.2471 H   0  0  0  0  0  0  0  0  0  0  0  0
   -4.7017  -18.6686   13.3792 H   0  0  0  0  0  0  0  0  0  0  0  0
   -5.3824  -20.1468   12.2841 H   0  0  0  0  0  0  0  0  0  0  0  0
   -7.5024  -21.5140   14.0017 H   0  0  0  0  0  0  0  0  0  0  0  0
   -6.6007  -22.1413   12.9280 H   0  0  0  0  0  0  0  0  0  0  0  0
   -8.2620  -22.4427   11.3933 H   0  0  0  0  0  0  0  0  0  0  0  0
   -9.3295  -21.8789   12.5603 H   0  0  0  0  0  0  0  0  0  0  0  0
   -8.7812  -20.3373   10.3487 H   0  0  0  0  0  0  0  0  0  0  0  0
   -9.3450  -19.6925   11.8266 H   0  0  0  0  0  0  0  0  0  0  0  0
    0.4852   -8.4539   17.1139 H   0  0  0  0  0  0  0  0  0  0  0  0
   -0.5355   -9.2977   15.8323 H   0  0  0  0  0  0  0  0  0  0  0  0
   -1.0528   -7.7850   14.1359 H   0  0  0  0  0  0  0  0  0  0  0  0
    0.3509   -6.3691   11.3949 H   0  0  0  0  0  0  0  0  0  0  0  0
   -0.0008   -3.2587   14.1500 H   0  0  0  0  0  0  0  0  0  0  0  0
  1  2  1  0
  2  3  1  0
  3  4  1  0
  4  5  1  0
  5  6  2  0
  5  7  1  0
  7  8  1  0
  8  9  1  0
  9 10  1  0
 10 11  1  0
 11 12  1  0
 12 13  1  0
  2 14  1  0
 14 15  1  0
 15 16  1  0
 16 17  2  0
 16 18  1  0
 18 19  2  0
 19 20  1  0
 20 21  2  0
 21 22  1  0
 21 23  1  0
 13  9  1  0
 23 18  1  0
  1 24  1  0
  1 25  1  0
  1 26  1  0
  2 27  1  0
  3 28  1  0
  3 29  1  0
  4 30  1  0
  7 31  1  0
  7 32  1  0
  8 33  1  0
  8 34  1  0
  9 35  1  0
 10 36  1  0
 10 37  1  0
 11 38  1  0
 11 39  1  0
 12 40  1  0
 12 41  1  0
 14 42  1  0
 14 43  1  0
 15 44  1  0
 19 45  1  0
 23 46  1  0
M  END
>  <Energy>  (1113) 
1123.9518069533715

>  <compound_id>  (1113) 
6418

>  <target_id>  (1113) 
1

>  <reference_id>  (1113) 
114

>  <inspiration_ids>  (1113) 
[114, 28]

>  <energy_score>  (1113) 
1143.0146592378933

>  <distance_score>  (1113) 
10.29386262439991

>  <path>  (1113) 
/opt/xchem-fragalysis-2/maxwin/BulkDock/SCRATCH/511018/C6418-P114/C6418-P114.minimised.mol

>  <scratch_subdir>  (1113) 
/opt/xchem-fragalysis-2/maxwin/BulkDock/SCRATCH/511018/C6418-P114

>  <fragmenstein_runtime>  (1113) 
23.777097940444946

>  <fragmenstein_outcome>  (1113) 
too moved

>  <fragmenstein_mode>  (1113) 
expansion

>  <fragmenstein_error>  (1113) 


$$$$
C6418-P28
     RDKit          3D

 46 47  0  0  0  0  0  0  0  0999 V2000
    1.7731  -12.6336   15.3929 C   0  0  0  0  0  0  0  0  0  0  0  0
    1.0429  -12.2159   13.7965 C   0  0  0  0  0  0  0  0  0  0  0  0
   -0.8761  -13.3501   13.6937 C   0  0  0  0  0  0  0  0  0  0  0  0
   -2.9424  -14.0654   13.6006 N   0  0  0  0  0  0  0  0  0  0  0  0
   -3.7120  -15.8800   13.9969 C   0  0  0  0  0  0  0  0  0  0  0  0
   -3.1693  -16.8979   14.4757 O   0  0  0  0  0  0  0  0  0  0  0  0
   -5.6009  -16.1562   13.3877 C   0  0  0  0  0  0  0  0  0  0  0  0
   -6.3364  -17.7690   12.7481 C   0  0  0  0  0  0  0  0  0  0  0  0
   -6.3590  -19.4815   11.9974 C   0  0  0  0  0  0  0  0  0  0  0  0
   -5.1131  -20.5303   12.0287 C   0  0  0  0  0  0  0  0  0  0  0  0
   -5.7640  -21.8052   11.6615 C   0  0  0  0  0  0  0  0  0  0  0  0
   -7.1069  -21.6303   12.3529 C   0  0  0  0  0  0  0  0  0  0  0  0
   -7.5303  -20.3022   12.1061 O   0  0  0  0  0  0  0  0  0  0  0  0
    2.6417  -10.6882   13.7582 C   0  0  0  0  0  0  0  0  0  0  0  0
    4.3505   -9.8769   13.7444 N   0  0  0  0  0  0  0  0  0  0  0  0
    5.8442  -10.5118   13.7262 C   0  0  0  0  0  0  0  0  0  0  0  0
    6.1234  -11.6688   13.6303 O   0  0  0  0  0  0  0  0  0  0  0  0
    7.3545   -9.2778   13.9565 C   0  0  0  0  0  0  0  0  0  0  0  0
    8.5964   -9.4429   14.6780 C   0  0  0  0  0  0  0  0  0  0  0  0
    8.9526   -8.2507   15.3045 N   0  0  0  0  0  0  0  0  0  0  0  0
    7.9892   -7.4294   14.9615 C   0  0  0  0  0  0  0  0  0  0  0  0
    6.9536   -6.3616   15.9898 Cl  0  0  0  0  0  0  0  0  0  0  0  0
    7.2519   -7.9104   13.9423 N   0  0  0  0  0  0  0  0  0  0  0  0
    1.4224  -13.5444   16.0451 H   0  0  0  0  0  0  0  0  0  0  0  0
    2.3421  -12.0405   16.1276 H   0  0  0  0  0  0  0  0  0  0  0  0
    2.5092  -12.9043   14.7660 H   0  0  0  0  0  0  0  0  0  0  0  0
    1.2926  -13.0468   13.1207 H   0  0  0  0  0  0  0  0  0  0  0  0
   -0.8386  -12.4984   12.9677 H   0  0  0  0  0  0  0  0  0  0  0  0
   -0.4822  -14.0711   12.9238 H   0  0  0  0  0  0  0  0  0  0  0  0
   -3.6446  -13.4878   13.1308 H   0  0  0  0  0  0  0  0  0  0  0  0
   -5.9117  -15.3673   12.6938 H   0  0  0  0  0  0  0  0  0  0  0  0
   -6.2214  -16.3300   14.2462 H   0  0  0  0  0  0  0  0  0  0  0  0
   -7.3819  -17.4450   12.7912 H   0  0  0  0  0  0  0  0  0  0  0  0
   -5.9451  -18.2434   13.6270 H   0  0  0  0  0  0  0  0  0  0  0  0
   -6.5782  -19.3027   10.9506 H   0  0  0  0  0  0  0  0  0  0  0  0
   -4.5156  -20.5557   12.9129 H   0  0  0  0  0  0  0  0  0  0  0  0
   -4.3099  -20.4281   11.2961 H   0  0  0  0  0  0  0  0  0  0  0  0
   -5.5549  -21.7076   10.6001 H   0  0  0  0  0  0  0  0  0  0  0  0
   -5.3220  -22.7949   11.7693 H   0  0  0  0  0  0  0  0  0  0  0  0
   -7.9149  -22.3247   12.1688 H   0  0  0  0  0  0  0  0  0  0  0  0
   -7.0514  -21.7222   13.4233 H   0  0  0  0  0  0  0  0  0  0  0  0
    2.8176   -9.9048   14.5646 H   0  0  0  0  0  0  0  0  0  0  0  0
    3.5430  -10.9607   14.7873 H   0  0  0  0  0  0  0  0  0  0  0  0
    4.4207   -8.8724   13.7513 H   0  0  0  0  0  0  0  0  0  0  0  0
    9.1212  -10.3596   14.9169 H   0  0  0  0  0  0  0  0  0  0  0  0
    6.3531   -7.5042   13.7564 H   0  0  0  0  0  0  0  0  0  0  0  0
  1  2  1  0
  2  3  1  0
  3  4  1  0
  4  5  1  0
  5  6  2  0
  5  7  1  0
  7  8  1  0
  8  9  1  0
  9 10  1  0
 10 11  1  0
 11 12  1  0
 12 13  1  0
  2 14  1  0
 14 15  1  0
 15 16  1  0
 16 17  2  0
 16 18  1  0
 18 19  2  0
 19 20  1  0
 20 21  2  0
 21 22  1  0
 21 23  1  0
 13  9  1  0
 23 18  1  0
  1 24  1  0
  1 25  1  0
  1 26  1  0
  2 27  1  0
  3 28  1  0
  3 29  1  0
  4 30  1  0
  7 31  1  0
  7 32  1  0
  8 33  1  0
  8 34  1  0
  9 35  1  0
 10 36  1  0
 10 37  1  0
 11 38  1  0
 11 39  1  0
 12 40  1  0
 12 41  1  0
 14 42  1  0
 14 43  1  0
 15 44  1  0
 19 45  1  0
 23 46  1  0
M  END
>  <Energy>  (1114) 
1277.4055515958148

>  <compound_id>  (1114) 
6418

>  <target_id>  (1114) 
1

>  <reference_id>  (1114) 
28

>  <inspiration_ids>  (1114) 
[114, 28]

>  <energy_score>  (1114) 
1296.4684038803248

>  <distance_score>  (1114) 
8.229816577380676

>  <path>  (1114) 
/opt/xchem-fragalysis-2/maxwin/BulkDock/SCRATCH/511018/C6418-P28/C6418-P28.minimised.mol

>  <scratch_subdir>  (1114) 
/opt/xchem-fragalysis-2/maxwin/BulkDock/SCRATCH/511018/C6418-P28

>  <fragmenstein_runtime>  (1114) 
31.08723211288452

>  <fragmenstein_outcome>  (1114) 
too moved

>  <fragmenstein_mode>  (1114) 
expansion

>  <fragmenstein_error>  (1114) 


$$$$
C6419-P114
     RDKit          3D

 40 42  0  0  0  0  0  0  0  0999 V2000
   -5.3968   -7.0553   11.9184 O   0  0  0  0  0  0  0  0  0  0  0  0
   -5.2745   -7.6680   12.9469 C   0  0  0  0  0  0  0  0  0  0  0  0
   -4.5139   -6.9792   14.1431 C   0  0  0  0  0  0  0  0  0  0  0  0
   -3.3509   -5.9854   13.8810 C   0  0  0  0  0  0  0  0  0  0  0  0
   -2.6046   -5.2063   14.7640 C   0  0  0  0  0  0  0  0  0  0  0  0
   -1.5572   -4.5690   14.1478 N   0  0  0  0  0  0  0  0  0  0  0  0
   -1.7274   -4.8186   12.8701 C   0  0  0  0  0  0  0  0  0  0  0  0
   -0.8881   -4.1643   11.7393 C   0  0  0  0  0  0  0  0  0  0  0  0
    0.5829   -3.9290   11.9652 C   0  0  0  0  0  0  0  0  0  0  0  0
    0.1315   -4.9837   10.9976 C   0  0  0  0  0  0  0  0  0  0  0  0
   -2.8062   -5.6456   12.6614 N   0  0  0  0  0  0  0  0  0  0  0  0
   -5.8144   -8.9855   13.3539 N   0  0  0  0  0  0  0  0  0  0  0  0
   -6.5918  -10.0021   12.5862 C   0  0  0  0  0  0  0  0  0  0  0  0
   -6.6309  -11.4517   13.2018 C   0  0  0  0  0  0  0  0  0  0  0  0
   -7.4533  -12.5153   12.4307 C   0  0  0  0  0  0  0  0  0  0  0  0
   -7.0385  -13.9663   12.7208 C   0  0  0  0  0  0  0  0  0  0  0  0
   -8.0437  -14.4430   13.7350 C   0  0  0  0  0  0  0  0  0  0  0  0
   -9.2816  -13.6793   13.3353 C   0  0  0  0  0  0  0  0  0  0  0  0
   -8.8375  -12.4184   12.8158 O   0  0  0  0  0  0  0  0  0  0  0  0
   -5.2813   -6.4333   14.7075 H   0  0  0  0  0  0  0  0  0  0  0  0
   -4.1382   -7.7649   14.8011 H   0  0  0  0  0  0  0  0  0  0  0  0
   -2.7494   -5.1165   15.8338 H   0  0  0  0  0  0  0  0  0  0  0  0
   -1.4215   -3.4027   11.1800 H   0  0  0  0  0  0  0  0  0  0  0  0
    1.0144   -3.0193   11.5649 H   0  0  0  0  0  0  0  0  0  0  0  0
    1.0123   -4.2464   12.9083 H   0  0  0  0  0  0  0  0  0  0  0  0
    0.2643   -4.7909    9.9393 H   0  0  0  0  0  0  0  0  0  0  0  0
    0.2783   -6.0179   11.2790 H   0  0  0  0  0  0  0  0  0  0  0  0
   -3.1711   -5.9235   11.7599 H   0  0  0  0  0  0  0  0  0  0  0  0
   -5.4414   -9.2310   14.2618 H   0  0  0  0  0  0  0  0  0  0  0  0
   -7.6104   -9.6093   12.5024 H   0  0  0  0  0  0  0  0  0  0  0  0
   -6.1650  -10.0325   11.5780 H   0  0  0  0  0  0  0  0  0  0  0  0
   -6.9957  -11.3747   14.2331 H   0  0  0  0  0  0  0  0  0  0  0  0
   -5.5959  -11.7852   13.2419 H   0  0  0  0  0  0  0  0  0  0  0  0
   -7.3784  -12.3172   11.3556 H   0  0  0  0  0  0  0  0  0  0  0  0
   -6.0076  -14.0763   13.0676 H   0  0  0  0  0  0  0  0  0  0  0  0
   -7.1384  -14.5572   11.8027 H   0  0  0  0  0  0  0  0  0  0  0  0
   -8.1834  -15.5265   13.7366 H   0  0  0  0  0  0  0  0  0  0  0  0
   -7.7251  -14.1362   14.7380 H   0  0  0  0  0  0  0  0  0  0  0  0
   -9.9562  -13.4991   14.1760 H   0  0  0  0  0  0  0  0  0  0  0  0
   -9.8438  -14.1819   12.5451 H   0  0  0  0  0  0  0  0  0  0  0  0
  1  2  2  0
  2  3  1  0
  3  4  1  0
  4  5  2  0
  5  6  1  0
  6  7  2  0
  7  8  1  0
  8  9  1  0
  9 10  1  0
  7 11  1  0
  2 12  1  0
 12 13  1  0
 13 14  1  0
 14 15  1  0
 15 16  1  0
 16 17  1  0
 17 18  1  0
 18 19  1  0
 11  4  1  0
 19 15  1  0
 10  8  1  0
  3 20  1  0
  3 21  1  0
  5 22  1  0
  8 23  1  0
  9 24  1  0
  9 25  1  0
 10 26  1  0
 10 27  1  0
 11 28  1  0
 12 29  1  0
 13 30  1  0
 13 31  1  0
 14 32  1  0
 14 33  1  0
 15 34  1  0
 16 35  1  0
 16 36  1  0
 17 37  1  0
 17 38  1  0
 18 39  1  0
 18 40  1  0
M  END
>  <Energy>  (1115) 
36.17401088586039

>  <compound_id>  (1115) 
6419

>  <target_id>  (1115) 
1

>  <reference_id>  (1115) 
114

>  <inspiration_ids>  (1115) 
[114, 28]

>  <energy_score>  (1115) 
-14.102310251788822

>  <distance_score>  (1115) 
14.293491071403128

>  <path>  (1115) 
/opt/xchem-fragalysis-2/maxwin/BulkDock/SCRATCH/511018/C6419-P114/C6419-P114.minimised.mol

>  <scratch_subdir>  (1115) 
/opt/xchem-fragalysis-2/maxwin/BulkDock/SCRATCH/511018/C6419-P114

>  <fragmenstein_runtime>  (1115) 
23.261468172073364

>  <fragmenstein_outcome>  (1115) 
too moved

>  <fragmenstein_mode>  (1115) 
expansion

>  <fragmenstein_error>  (1115) 


$$$$
C6419-P28
     RDKit          3D

 40 42  0  0  0  0  0  0  0  0999 V2000
   -0.4488  -14.2460   12.4770 O   0  0  0  0  0  0  0  0  0  0  0  0
    0.4909  -14.2481   11.7343 C   0  0  0  0  0  0  0  0  0  0  0  0
    1.0669  -12.5128   11.4537 C   0  0  0  0  0  0  0  0  0  0  0  0
    2.4942  -11.4793   10.7257 C   0  0  0  0  0  0  0  0  0  0  0  0
    3.5114  -11.7667    9.7865 C   0  0  0  0  0  0  0  0  0  0  0  0
    4.3992  -10.7400    9.6413 N   0  0  0  0  0  0  0  0  0  0  0  0
    3.9275   -9.7890   10.4044 C   0  0  0  0  0  0  0  0  0  0  0  0
    4.7834   -8.5695   10.8272 C   0  0  0  0  0  0  0  0  0  0  0  0
    6.2848   -8.6814   10.6932 C   0  0  0  0  0  0  0  0  0  0  0  0
    5.6536   -8.7291   12.0522 C   0  0  0  0  0  0  0  0  0  0  0  0
    2.6703  -10.1104   10.8672 N   0  0  0  0  0  0  0  0  0  0  0  0
    1.1602  -15.5293   10.9298 N   0  0  0  0  0  0  0  0  0  0  0  0
    0.7719  -16.9825   10.8935 C   0  0  0  0  0  0  0  0  0  0  0  0
   -0.1234  -17.6194    9.7819 C   0  0  0  0  0  0  0  0  0  0  0  0
   -0.3759  -19.1704    9.8835 C   0  0  0  0  0  0  0  0  0  0  0  0
   -1.5927  -19.6300    9.0767 C   0  0  0  0  0  0  0  0  0  0  0  0
   -1.9866  -20.9197    9.7572 C   0  0  0  0  0  0  0  0  0  0  0  0
   -1.6655  -20.6393   11.2067 C   0  0  0  0  0  0  0  0  0  0  0  0
   -0.5989  -19.6653   11.2203 O   0  0  0  0  0  0  0  0  0  0  0  0
    1.5235  -12.9636   10.6543 H   0  0  0  0  0  0  0  0  0  0  0  0
    0.1874  -11.8707   11.3723 H   0  0  0  0  0  0  0  0  0  0  0  0
    3.6671  -12.6884    9.2395 H   0  0  0  0  0  0  0  0  0  0  0  0
    4.3391   -7.6011   10.6336 H   0  0  0  0  0  0  0  0  0  0  0  0
    6.6996   -9.6015   10.2935 H   0  0  0  0  0  0  0  0  0  0  0  0
    6.8377   -7.8019   10.3940 H   0  0  0  0  0  0  0  0  0  0  0  0
    5.6575   -9.6837   12.5677 H   0  0  0  0  0  0  0  0  0  0  0  0
    5.7724   -7.8812   12.7096 H   0  0  0  0  0  0  0  0  0  0  0  0
    2.1257   -9.5204   11.4772 H   0  0  0  0  0  0  0  0  0  0  0  0
    1.9903  -15.2276   10.4472 H   0  0  0  0  0  0  0  0  0  0  0  0
    0.4521  -17.3335   11.8283 H   0  0  0  0  0  0  0  0  0  0  0  0
    1.7481  -17.4693   10.7569 H   0  0  0  0  0  0  0  0  0  0  0  0
   -1.0818  -17.0998    9.7542 H   0  0  0  0  0  0  0  0  0  0  0  0
    0.3438  -17.4311    8.8067 H   0  0  0  0  0  0  0  0  0  0  0  0
    0.5229  -19.6844    9.5205 H   0  0  0  0  0  0  0  0  0  0  0  0
   -2.4111  -18.9072    9.1605 H   0  0  0  0  0  0  0  0  0  0  0  0
   -1.3655  -19.7563    8.0143 H   0  0  0  0  0  0  0  0  0  0  0  0
   -1.3533  -21.7356    9.3891 H   0  0  0  0  0  0  0  0  0  0  0  0
   -3.0302  -21.2024    9.5959 H   0  0  0  0  0  0  0  0  0  0  0  0
   -1.3429  -21.5352   11.7448 H   0  0  0  0  0  0  0  0  0  0  0  0
   -2.5252  -20.2144   11.7312 H   0  0  0  0  0  0  0  0  0  0  0  0
  1  2  2  0
  2  3  1  0
  3  4  1  0
  4  5  2  0
  5  6  1  0
  6  7  2  0
  7  8  1  0
  8  9  1  0
  9 10  1  0
  7 11  1  0
  2 12  1  0
 12 13  1  0
 13 14  1  0
 14 15  1  0
 15 16  1  0
 16 17  1  0
 17 18  1  0
 18 19  1  0
 11  4  1  0
 19 15  1  0
 10  8  1  0
  3 20  1  0
  3 21  1  0
  5 22  1  0
  8 23  1  0
  9 24  1  0
  9 25  1  0
 10 26  1  0
 10 27  1  0
 11 28  1  0
 12 29  1  0
 13 30  1  0
 13 31  1  0
 14 32  1  0
 14 33  1  0
 15 34  1  0
 16 35  1  0
 16 36  1  0
 17 37  1  0
 17 38  1  0
 18 39  1  0
 18 40  1  0
M  END
>  <Energy>  (1116) 
200.13449987353084

>  <compound_id>  (1116) 
6419

>  <target_id>  (1116) 
1

>  <reference_id>  (1116) 
28

>  <inspiration_ids>  (1116) 
[114, 28]

>  <energy_score>  (1116) 
149.8581787358795

>  <distance_score>  (1116) 
13.077114349972627

>  <path>  (1116) 
/opt/xchem-fragalysis-2/maxwin/BulkDock/SCRATCH/511018/C6419-P28/C6419-P28.minimised.mol

>  <scratch_subdir>  (1116) 
/opt/xchem-fragalysis-2/maxwin/BulkDock/SCRATCH/511018/C6419-P28

>  <fragmenstein_runtime>  (1116) 
14.562175512313843

>  <fragmenstein_outcome>  (1116) 
too moved

>  <fragmenstein_mode>  (1116) 
expansion

>  <fragmenstein_error>  (1116) 


$$$$
C6420-P114
     RDKit          3D

 46 47  0  0  0  0  0  0  0  0999 V2000
    9.2262   -7.9714   21.5150 C   0  0  0  0  0  0  0  0  0  0  0  0
    8.7056   -9.3168   21.1876 C   0  0  0  0  0  0  0  0  0  0  0  0
    7.4496   -9.6447   20.9859 N   0  0  0  0  0  0  0  0  0  0  0  0
    7.4134  -11.0166   20.7105 C   0  0  0  0  0  0  0  0  0  0  0  0
    6.0720  -11.5750   20.2502 C   0  0  0  0  0  0  0  0  0  0  0  0
    5.5433  -13.0410   20.2061 C   0  0  0  0  0  0  0  0  0  0  0  0
    6.0663  -13.8335   20.9773 O   0  0  0  0  0  0  0  0  0  0  0  0
    4.2213  -13.2671   19.1470 N   0  0  0  0  0  0  0  0  0  0  0  0
    3.0592  -14.8098   18.8782 C   0  0  0  0  0  0  0  0  0  0  0  0
    2.1293  -14.5206   17.8560 C   0  0  0  0  0  0  0  0  0  0  0  0
    2.1565  -15.7516   20.2711 C   0  0  0  0  0  0  0  0  0  0  0  0
    1.1233  -16.8101   19.9642 N   0  0  0  0  0  0  0  0  0  0  0  0
    0.0322  -17.3487   20.7741 C   0  0  0  0  0  0  0  0  0  0  0  0
   -0.3681  -17.0283   21.8575 O   0  0  0  0  0  0  0  0  0  0  0  0
   -0.5684  -18.6052   20.0470 C   0  0  0  0  0  0  0  0  0  0  0  0
   -2.0704  -18.8516   19.8310 C   0  0  0  0  0  0  0  0  0  0  0  0
   -3.0534  -18.5442   20.9345 C   0  0  0  0  0  0  0  0  0  0  0  0
   -4.3715  -18.6866   20.2004 C   0  0  0  0  0  0  0  0  0  0  0  0
   -4.0437  -18.1647   18.8167 C   0  0  0  0  0  0  0  0  0  0  0  0
   -2.6048  -18.1697   18.6811 O   0  0  0  0  0  0  0  0  0  0  0  0
    8.6915  -11.5106   20.8471 C   0  0  0  0  0  0  0  0  0  0  0  0
    9.5002  -10.4265   21.0864 N   0  0  0  0  0  0  0  0  0  0  0  0
   10.2992   -7.9921   21.7283 H   0  0  0  0  0  0  0  0  0  0  0  0
    8.7133   -7.5736   22.3961 H   0  0  0  0  0  0  0  0  0  0  0  0
    9.0516   -7.2864   20.6799 H   0  0  0  0  0  0  0  0  0  0  0  0
    5.9647  -11.1488   19.2643 H   0  0  0  0  0  0  0  0  0  0  0  0
    5.4410  -11.1460   21.0262 H   0  0  0  0  0  0  0  0  0  0  0  0
    3.9882  -12.3753   18.6879 H   0  0  0  0  0  0  0  0  0  0  0  0
    3.8142  -15.4572   18.4354 H   0  0  0  0  0  0  0  0  0  0  0  0
    2.5419  -13.5759   17.9216 H   0  0  0  0  0  0  0  0  0  0  0  0
    1.1100  -14.1754   17.8330 H   0  0  0  0  0  0  0  0  0  0  0  0
    2.3811  -15.1369   17.0008 H   0  0  0  0  0  0  0  0  0  0  0  0
    1.8149  -15.1107   21.0691 H   0  0  0  0  0  0  0  0  0  0  0  0
    2.8326  -16.3413   20.9136 H   0  0  0  0  0  0  0  0  0  0  0  0
    1.2323  -17.3800   19.1348 H   0  0  0  0  0  0  0  0  0  0  0  0
   -0.0846  -18.7428   19.0733 H   0  0  0  0  0  0  0  0  0  0  0  0
   -0.1997  -19.4379   20.6649 H   0  0  0  0  0  0  0  0  0  0  0  0
   -2.1576  -19.9217   19.5886 H   0  0  0  0  0  0  0  0  0  0  0  0
   -2.9652  -19.2173   21.7913 H   0  0  0  0  0  0  0  0  0  0  0  0
   -2.9433  -17.5112   21.2828 H   0  0  0  0  0  0  0  0  0  0  0  0
   -4.6581  -19.7421   20.1482 H   0  0  0  0  0  0  0  0  0  0  0  0
   -5.1938  -18.1435   20.6741 H   0  0  0  0  0  0  0  0  0  0  0  0
   -4.4876  -18.7829   18.0389 H   0  0  0  0  0  0  0  0  0  0  0  0
   -4.3870  -17.1365   18.6824 H   0  0  0  0  0  0  0  0  0  0  0  0
    9.1040  -12.5049   20.7561 H   0  0  0  0  0  0  0  0  0  0  0  0
   10.5012  -10.4515   21.2199 H   0  0  0  0  0  0  0  0  0  0  0  0
  1  2  1  0
  2  3  2  0
  3  4  1  0
  4  5  1  0
  5  6  1  0
  6  7  2  0
  6  8  1  0
  8  9  1  0
  9 10  1  0
  9 11  1  0
 11 12  1  0
 12 13  1  0
 13 14  2  0
 13 15  1  0
 15 16  1  0
 16 17  1  0
 17 18  1  0
 18 19  1  0
 19 20  1  0
  4 21  2  0
 21 22  1  0
 22  2  1  0
 20 16  1  0
  1 23  1  0
  1 24  1  0
  1 25  1  0
  5 26  1  0
  5 27  1  0
  8 28  1  0
  9 29  1  0
 10 30  1  0
 10 31  1  0
 10 32  1  0
 11 33  1  0
 11 34  1  0
 12 35  1  0
 15 36  1  0
 15 37  1  0
 16 38  1  0
 17 39  1  0
 17 40  1  0
 18 41  1  0
 18 42  1  0
 19 43  1  0
 19 44  1  0
 21 45  1  0
 22 46  1  0
M  END
>  <Energy>  (1117) 
206.99031273570026

>  <compound_id>  (1117) 
6420

>  <target_id>  (1117) 
1

>  <reference_id>  (1117) 
114

>  <inspiration_ids>  (1117) 
[114, 28]

>  <energy_score>  (1117) 
169.96521378485562

>  <distance_score>  (1117) 
12.639777160172756

>  <path>  (1117) 
/opt/xchem-fragalysis-2/maxwin/BulkDock/SCRATCH/511018/C6420-P114/C6420-P114.minimised.mol

>  <scratch_subdir>  (1117) 
/opt/xchem-fragalysis-2/maxwin/BulkDock/SCRATCH/511018/C6420-P114

>  <fragmenstein_runtime>  (1117) 
30.680485725402832

>  <fragmenstein_outcome>  (1117) 
too moved

>  <fragmenstein_mode>  (1117) 
expansion

>  <fragmenstein_error>  (1117) 


$$$$
C6420-P28
     RDKit          3D

 46 47  0  0  0  0  0  0  0  0999 V2000
    8.3755   -4.0096   15.5269 C   0  0  0  0  0  0  0  0  0  0  0  0
    7.4481   -5.8554   15.6169 C   0  0  0  0  0  0  0  0  0  0  0  0
    6.1689   -6.4270   15.3400 N   0  0  0  0  0  0  0  0  0  0  0  0
    5.7370   -7.6743   14.0114 C   0  0  0  0  0  0  0  0  0  0  0  0
    4.3489   -9.1547   13.5354 C   0  0  0  0  0  0  0  0  0  0  0  0
    3.2644  -10.1208   11.9885 C   0  0  0  0  0  0  0  0  0  0  0  0
    3.5077  -10.2123   10.8169 O   0  0  0  0  0  0  0  0  0  0  0  0
    1.9908  -10.8772   12.7925 N   0  0  0  0  0  0  0  0  0  0  0  0
    0.7324  -12.1137   12.2204 C   0  0  0  0  0  0  0  0  0  0  0  0
   -0.1373  -11.2931   11.5463 C   0  0  0  0  0  0  0  0  0  0  0  0
    0.4857  -13.8742   11.8591 C   0  0  0  0  0  0  0  0  0  0  0  0
    0.8573  -15.4816   11.5870 N   0  0  0  0  0  0  0  0  0  0  0  0
    1.6613  -16.1494   10.4785 C   0  0  0  0  0  0  0  0  0  0  0  0
    2.1614  -15.6810    9.4723 O   0  0  0  0  0  0  0  0  0  0  0  0
    2.0534  -17.6845   10.6423 C   0  0  0  0  0  0  0  0  0  0  0  0
    1.3042  -18.8216   11.3222 C   0  0  0  0  0  0  0  0  0  0  0  0
    1.9074  -19.5370   12.5280 C   0  0  0  0  0  0  0  0  0  0  0  0
    1.2191  -20.8845   12.5008 C   0  0  0  0  0  0  0  0  0  0  0  0
    1.2064  -21.1764   11.0276 C   0  0  0  0  0  0  0  0  0  0  0  0
    1.0998  -19.9094   10.3722 O   0  0  0  0  0  0  0  0  0  0  0  0
    7.1325   -7.9011   14.2027 C   0  0  0  0  0  0  0  0  0  0  0  0
    8.0240   -7.0900   15.0899 N   0  0  0  0  0  0  0  0  0  0  0  0
    7.9132   -3.1551   15.9765 H   0  0  0  0  0  0  0  0  0  0  0  0
    8.1805   -3.3001   14.6588 H   0  0  0  0  0  0  0  0  0  0  0  0
    9.4672   -3.9246   15.2824 H   0  0  0  0  0  0  0  0  0  0  0  0
    5.0914   -9.9996   13.7147 H   0  0  0  0  0  0  0  0  0  0  0  0
    3.7977   -9.6824   14.2978 H   0  0  0  0  0  0  0  0  0  0  0  0
    2.0738  -10.7080   13.7313 H   0  0  0  0  0  0  0  0  0  0  0  0
    0.3253  -12.2808   13.2082 H   0  0  0  0  0  0  0  0  0  0  0  0
   -0.7812  -10.8891   12.3200 H   0  0  0  0  0  0  0  0  0  0  0  0
   -0.7407  -11.8100   10.8593 H   0  0  0  0  0  0  0  0  0  0  0  0
    0.5368  -10.5826   11.0493 H   0  0  0  0  0  0  0  0  0  0  0  0
    1.2893  -13.6009   11.2614 H   0  0  0  0  0  0  0  0  0  0  0  0
   -0.5235  -13.8974   11.4781 H   0  0  0  0  0  0  0  0  0  0  0  0
    0.5276  -16.1835   12.2232 H   0  0  0  0  0  0  0  0  0  0  0  0
    3.0654  -17.6465   11.0704 H   0  0  0  0  0  0  0  0  0  0  0  0
    2.2114  -18.0080    9.6010 H   0  0  0  0  0  0  0  0  0  0  0  0
    0.3593  -18.4108   11.6198 H   0  0  0  0  0  0  0  0  0  0  0  0
    1.7373  -19.0404   13.4831 H   0  0  0  0  0  0  0  0  0  0  0  0
    2.9881  -19.6686   12.3963 H   0  0  0  0  0  0  0  0  0  0  0  0
    1.7347  -21.6505   13.0855 H   0  0  0  0  0  0  0  0  0  0  0  0
    0.1954  -20.7965   12.8744 H   0  0  0  0  0  0  0  0  0  0  0  0
    2.1476  -21.6362   10.7074 H   0  0  0  0  0  0  0  0  0  0  0  0
    0.3865  -21.8324   10.7238 H   0  0  0  0  0  0  0  0  0  0  0  0
    7.5008   -8.8704   13.9803 H   0  0  0  0  0  0  0  0  0  0  0  0
    9.0045   -7.2638   15.2134 H   0  0  0  0  0  0  0  0  0  0  0  0
  1  2  1  0
  2  3  2  0
  3  4  1  0
  4  5  1  0
  5  6  1  0
  6  7  2  0
  6  8  1  0
  8  9  1  0
  9 10  1  0
  9 11  1  0
 11 12  1  0
 12 13  1  0
 13 14  2  0
 13 15  1  0
 15 16  1  0
 16 17  1  0
 17 18  1  0
 18 19  1  0
 19 20  1  0
  4 21  2  0
 21 22  1  0
 22  2  1  0
 20 16  1  0
  1 23  1  0
  1 24  1  0
  1 25  1  0
  5 26  1  0
  5 27  1  0
  8 28  1  0
  9 29  1  0
 10 30  1  0
 10 31  1  0
 10 32  1  0
 11 33  1  0
 11 34  1  0
 12 35  1  0
 15 36  1  0
 15 37  1  0
 16 38  1  0
 17 39  1  0
 17 40  1  0
 18 41  1  0
 18 42  1  0
 19 43  1  0
 19 44  1  0
 21 45  1  0
 22 46  1  0
M  END
>  <Energy>  (1118) 
769.88023887373106

>  <compound_id>  (1118) 
6420

>  <target_id>  (1118) 
1

>  <reference_id>  (1118) 
28

>  <inspiration_ids>  (1118) 
[114, 28]

>  <energy_score>  (1118) 
732.8551399228752

>  <distance_score>  (1118) 
12.14283181992166

>  <path>  (1118) 
/opt/xchem-fragalysis-2/maxwin/BulkDock/SCRATCH/511018/C6420-P28/C6420-P28.minimised.mol

>  <scratch_subdir>  (1118) 
/opt/xchem-fragalysis-2/maxwin/BulkDock/SCRATCH/511018/C6420-P28

>  <fragmenstein_runtime>  (1118) 
26.13142466545105

>  <fragmenstein_outcome>  (1118) 
too moved

>  <fragmenstein_mode>  (1118) 
expansion

>  <fragmenstein_error>  (1118) 


$$$$
C6421-P114
     RDKit          3D

 47 48  0  0  0  0  0  0  0  0999 V2000
    6.8183   -6.4345   16.1172 C   0  0  0  0  0  0  0  0  0  0  0  0
    6.2446   -6.5529   17.5016 C   0  0  0  0  0  0  0  0  0  0  0  0
    5.3168   -5.5935   17.6041 N   0  0  0  0  0  0  0  0  0  0  0  0
    4.5752   -6.3356   16.8505 C   0  0  0  0  0  0  0  0  0  0  0  0
    4.2431   -7.0344   17.8771 N   0  0  0  0  0  0  0  0  0  0  0  0
    5.3545   -7.5592   18.1313 C   0  0  0  0  0  0  0  0  0  0  0  0
    4.8567   -9.4293   18.0357 C   0  0  0  0  0  0  0  0  0  0  0  0
    3.3063  -10.3391   17.1187 C   0  0  0  0  0  0  0  0  0  0  0  0
    2.2690   -9.9084   17.5907 O   0  0  0  0  0  0  0  0  0  0  0  0
    3.3246  -11.7255   15.8004 N   0  0  0  0  0  0  0  0  0  0  0  0
    1.7247  -12.8028   14.8576 C   0  0  0  0  0  0  0  0  0  0  0  0
    0.7832  -13.9271   13.1761 C   0  0  0  0  0  0  0  0  0  0  0  0
   -0.5879  -13.6858   13.4541 O   0  0  0  0  0  0  0  0  0  0  0  0
    0.4809  -15.5833   11.8188 C   0  0  0  0  0  0  0  0  0  0  0  0
   -0.4853  -17.2990   11.4845 N   0  0  0  0  0  0  0  0  0  0  0  0
   -1.4794  -17.9133   10.0153 C   0  0  0  0  0  0  0  0  0  0  0  0
   -1.5750  -17.3143    8.9418 O   0  0  0  0  0  0  0  0  0  0  0  0
   -2.7528  -19.5881   10.0731 C   0  0  0  0  0  0  0  0  0  0  0  0
   -4.4903  -20.3496   11.0788 C   0  0  0  0  0  0  0  0  0  0  0  0
   -6.4263  -19.6754   11.6110 C   0  0  0  0  0  0  0  0  0  0  0  0
   -7.6680  -20.4767   11.9215 C   0  0  0  0  0  0  0  0  0  0  0  0
   -6.7472  -21.2220   12.8518 C   0  0  0  0  0  0  0  0  0  0  0  0
   -4.9467  -20.7259   12.5855 O   0  0  0  0  0  0  0  0  0  0  0  0
    7.7723   -6.4329   15.6870 H   0  0  0  0  0  0  0  0  0  0  0  0
    6.4022   -7.0794   15.3764 H   0  0  0  0  0  0  0  0  0  0  0  0
    6.6450   -5.4584   15.8614 H   0  0  0  0  0  0  0  0  0  0  0  0
    5.0624   -4.7612   17.1465 H   0  0  0  0  0  0  0  0  0  0  0  0
    4.0484   -6.1767   15.9091 H   0  0  0  0  0  0  0  0  0  0  0  0
    5.5060  -10.0346   18.7244 H   0  0  0  0  0  0  0  0  0  0  0  0
    4.0158   -9.0489   18.5543 H   0  0  0  0  0  0  0  0  0  0  0  0
    4.2662  -11.8708   15.4891 H   0  0  0  0  0  0  0  0  0  0  0  0
    1.5003  -13.2490   15.8326 H   0  0  0  0  0  0  0  0  0  0  0  0
    1.1272  -12.0402   14.3996 H   0  0  0  0  0  0  0  0  0  0  0  0
    0.6668  -13.2248   12.3358 H   0  0  0  0  0  0  0  0  0  0  0  0
   -1.0226  -14.5475   13.5249 H   0  0  0  0  0  0  0  0  0  0  0  0
    1.0117  -16.2566   12.4551 H   0  0  0  0  0  0  0  0  0  0  0  0
    0.9631  -15.4791   10.8628 H   0  0  0  0  0  0  0  0  0  0  0  0
   -0.4928  -17.9955   12.2012 H   0  0  0  0  0  0  0  0  0  0  0  0
   -3.1414  -19.5800    9.0429 H   0  0  0  0  0  0  0  0  0  0  0  0
   -2.0488  -20.4348   10.1584 H   0  0  0  0  0  0  0  0  0  0  0  0
   -4.3674  -21.3566   10.6443 H   0  0  0  0  0  0  0  0  0  0  0  0
   -6.9193  -19.0420   10.8874 H   0  0  0  0  0  0  0  0  0  0  0  0
   -6.3445  -19.0209   12.5163 H   0  0  0  0  0  0  0  0  0  0  0  0
   -8.2425  -21.1707   11.2859 H   0  0  0  0  0  0  0  0  0  0  0  0
   -8.4943  -19.7844   12.0418 H   0  0  0  0  0  0  0  0  0  0  0  0
   -7.1263  -21.1894   13.8366 H   0  0  0  0  0  0  0  0  0  0  0  0
   -6.8893  -22.3158   12.8279 H   0  0  0  0  0  0  0  0  0  0  0  0
  1  2  1  0
  2  3  1  0
  3  4  1  0
  4  5  2  0
  5  6  1  0
  6  7  1  0
  7  8  1  0
  8  9  2  0
  8 10  1  0
 10 11  1  0
 11 12  1  0
 12 13  1  0
 12 14  1  0
 14 15  1  0
 15 16  1  0
 16 17  2  0
 16 18  1  0
 18 19  1  0
 19 20  1  0
 20 21  1  0
 21 22  1  0
 22 23  1  0
  6  2  2  0
 23 19  1  0
  1 24  1  0
  1 25  1  0
  1 26  1  0
  3 27  1  0
  4 28  1  0
  7 29  1  0
  7 30  1  0
 10 31  1  0
 11 32  1  0
 11 33  1  0
 12 34  1  0
 13 35  1  0
 14 36  1  0
 14 37  1  0
 15 38  1  0
 18 39  1  0
 18 40  1  0
 19 41  1  0
 20 42  1  0
 20 43  1  0
 21 44  1  0
 21 45  1  0
 22 46  1  0
 22 47  1  0
M  END
>  <Energy>  (1119) 
1628.3517254361052

>  <compound_id>  (1119) 
6421

>  <target_id>  (1119) 
1

>  <reference_id>  (1119) 
114

>  <inspiration_ids>  (1119) 
[114, 28]

>  <energy_score>  (1119) 
1568.1321894037999

>  <distance_score>  (1119) 
8.60996106938281

>  <path>  (1119) 
/opt/xchem-fragalysis-2/maxwin/BulkDock/SCRATCH/511018/C6421-P114/C6421-P114.minimised.mol

>  <scratch_subdir>  (1119) 
/opt/xchem-fragalysis-2/maxwin/BulkDock/SCRATCH/511018/C6421-P114

>  <fragmenstein_runtime>  (1119) 
29.612446308135986

>  <fragmenstein_outcome>  (1119) 
too moved

>  <fragmenstein_mode>  (1119) 
expansion

>  <fragmenstein_error>  (1119) 


$$$$
C6421-P28
     RDKit          3D

 47 48  0  0  0  0  0  0  0  0999 V2000
    6.2871   -6.1688   16.3549 C   0  0  0  0  0  0  0  0  0  0  0  0
    5.0793   -6.2863   17.2736 C   0  0  0  0  0  0  0  0  0  0  0  0
    5.0748   -5.3042   18.1982 N   0  0  0  0  0  0  0  0  0  0  0  0
    6.2131   -5.5605   18.8405 C   0  0  0  0  0  0  0  0  0  0  0  0
    6.2149   -6.8981   18.8398 N   0  0  0  0  0  0  0  0  0  0  0  0
    4.8898   -7.3407   18.2895 C   0  0  0  0  0  0  0  0  0  0  0  0
    4.0271   -9.2033   18.0248 C   0  0  0  0  0  0  0  0  0  0  0  0
    2.5681  -10.2032   17.4843 C   0  0  0  0  0  0  0  0  0  0  0  0
    1.5224   -9.5369   17.7114 O   0  0  0  0  0  0  0  0  0  0  0  0
    2.5321  -12.0543   16.8252 N   0  0  0  0  0  0  0  0  0  0  0  0
    0.8478  -13.4847   16.4745 C   0  0  0  0  0  0  0  0  0  0  0  0
   -1.1125  -14.1382   15.4500 C   0  0  0  0  0  0  0  0  0  0  0  0
   -0.7293  -13.5087   13.6767 O   0  0  0  0  0  0  0  0  0  0  0  0
   -2.9213  -15.4743   14.9713 C   0  0  0  0  0  0  0  0  0  0  0  0
   -4.5958  -15.7801   13.6638 N   0  0  0  0  0  0  0  0  0  0  0  0
   -5.7298  -17.2892   13.3765 C   0  0  0  0  0  0  0  0  0  0  0  0
   -5.5602  -18.3502   13.8829 O   0  0  0  0  0  0  0  0  0  0  0  0
   -6.8411  -17.3809   12.4203 C   0  0  0  0  0  0  0  0  0  0  0  0
   -6.9931  -19.3253   11.9227 C   0  0  0  0  0  0  0  0  0  0  0  0
   -8.4574  -19.9861   11.6401 C   0  0  0  0  0  0  0  0  0  0  0  0
   -8.5648  -21.3940   12.1312 C   0  0  0  0  0  0  0  0  0  0  0  0
   -7.1286  -21.6456   12.4887 C   0  0  0  0  0  0  0  0  0  0  0  0
   -6.2607  -20.4907   12.2663 O   0  0  0  0  0  0  0  0  0  0  0  0
    6.5519   -6.8143   15.5297 H   0  0  0  0  0  0  0  0  0  0  0  0
    6.4899   -5.2478   15.9525 H   0  0  0  0  0  0  0  0  0  0  0  0
    7.1085   -6.1271   16.9857 H   0  0  0  0  0  0  0  0  0  0  0  0
    4.3999   -4.5758   18.4064 H   0  0  0  0  0  0  0  0  0  0  0  0
    6.6960   -4.8842   19.5227 H   0  0  0  0  0  0  0  0  0  0  0  0
    3.3770   -9.2303   18.8469 H   0  0  0  0  0  0  0  0  0  0  0  0
    3.1939   -8.4445   17.6620 H   0  0  0  0  0  0  0  0  0  0  0  0
    3.4654  -12.4077   16.7995 H   0  0  0  0  0  0  0  0  0  0  0  0
    0.4495  -13.6857   17.4828 H   0  0  0  0  0  0  0  0  0  0  0  0
    1.5366  -14.3142   16.3703 H   0  0  0  0  0  0  0  0  0  0  0  0
   -1.5133  -14.3533   14.4732 H   0  0  0  0  0  0  0  0  0  0  0  0
    0.0878  -12.9957   13.8030 H   0  0  0  0  0  0  0  0  0  0  0  0
   -3.4644  -15.5377   15.9676 H   0  0  0  0  0  0  0  0  0  0  0  0
   -2.7291  -16.5415   14.8098 H   0  0  0  0  0  0  0  0  0  0  0  0
   -4.8932  -15.0005   13.0510 H   0  0  0  0  0  0  0  0  0  0  0  0
   -6.5799  -16.7897   11.5411 H   0  0  0  0  0  0  0  0  0  0  0  0
   -7.7750  -17.0683   12.8943 H   0  0  0  0  0  0  0  0  0  0  0  0
   -6.6812  -19.2835   10.8844 H   0  0  0  0  0  0  0  0  0  0  0  0
   -9.2581  -19.3460   12.0040 H   0  0  0  0  0  0  0  0  0  0  0  0
   -8.5464  -20.1014   10.5575 H   0  0  0  0  0  0  0  0  0  0  0  0
   -9.2304  -21.6458   12.9714 H   0  0  0  0  0  0  0  0  0  0  0  0
   -9.1478  -21.9898   11.4416 H   0  0  0  0  0  0  0  0  0  0  0  0
   -6.6707  -22.5363   12.0583 H   0  0  0  0  0  0  0  0  0  0  0  0
   -7.1829  -21.8233   13.5503 H   0  0  0  0  0  0  0  0  0  0  0  0
  1  2  1  0
  2  3  1  0
  3  4  1  0
  4  5  2  0
  5  6  1  0
  6  7  1  0
  7  8  1  0
  8  9  2  0
  8 10  1  0
 10 11  1  0
 11 12  1  0
 12 13  1  0
 12 14  1  0
 14 15  1  0
 15 16  1  0
 16 17  2  0
 16 18  1  0
 18 19  1  0
 19 20  1  0
 20 21  1  0
 21 22  1  0
 22 23  1  0
  6  2  2  0
 23 19  1  0
  1 24  1  0
  1 25  1  0
  1 26  1  0
  3 27  1  0
  4 28  1  0
  7 29  1  0
  7 30  1  0
 10 31  1  0
 11 32  1  0
 11 33  1  0
 12 34  1  0
 13 35  1  0
 14 36  1  0
 14 37  1  0
 15 38  1  0
 18 39  1  0
 18 40  1  0
 19 41  1  0
 20 42  1  0
 20 43  1  0
 21 44  1  0
 21 45  1  0
 22 46  1  0
 22 47  1  0
M  END
>  <Energy>  (1120) 
1689.5417094541278

>  <compound_id>  (1120) 
6421

>  <target_id>  (1120) 
1

>  <reference_id>  (1120) 
28

>  <inspiration_ids>  (1120) 
[114, 28]

>  <energy_score>  (1120) 
1629.3221734218052

>  <distance_score>  (1120) 
8.093541283017672

>  <path>  (1120) 
/opt/xchem-fragalysis-2/maxwin/BulkDock/SCRATCH/511018/C6421-P28/C6421-P28.minimised.mol

>  <scratch_subdir>  (1120) 
/opt/xchem-fragalysis-2/maxwin/BulkDock/SCRATCH/511018/C6421-P28

>  <fragmenstein_runtime>  (1120) 
20.882288217544556

>  <fragmenstein_outcome>  (1120) 
too moved

>  <fragmenstein_mode>  (1120) 
expansion

>  <fragmenstein_error>  (1120) 


$$$$
C6422-P114
     RDKit          3D

 43 44  0  0  0  0  0  0  0  0999 V2000
    0.1849  -12.5459   11.7280 C   0  0  0  0  0  0  0  0  0  0  0  0
   -0.2378  -13.8081   12.4561 C   0  0  0  0  0  0  0  0  0  0  0  0
   -1.3619  -13.4647   13.6538 C   0  0  0  0  0  0  0  0  0  0  0  0
   -3.4510  -14.1193   12.9247 C   0  0  0  0  0  0  0  0  0  0  0  0
   -5.4851  -14.1626   12.8155 N   0  0  0  0  0  0  0  0  0  0  0  0
   -6.4767  -14.5100   11.6371 C   0  0  0  0  0  0  0  0  0  0  0  0
   -6.2670  -14.9190   10.5233 O   0  0  0  0  0  0  0  0  0  0  0  0
   -7.8631  -14.0752   12.2426 C   0  0  0  0  0  0  0  0  0  0  0  0
   -8.5105  -14.9171   13.3201 C   0  0  0  0  0  0  0  0  0  0  0  0
   -9.9532  -14.4333   13.2759 C   0  0  0  0  0  0  0  0  0  0  0  0
  -10.1209  -13.6518   11.9964 C   0  0  0  0  0  0  0  0  0  0  0  0
   -8.8767  -13.6954   11.3122 O   0  0  0  0  0  0  0  0  0  0  0  0
   -0.4906  -11.8460   14.1184 N   0  0  0  0  0  0  0  0  0  0  0  0
   -1.1793  -10.0611   14.7108 C   0  0  0  0  0  0  0  0  0  0  0  0
   -2.3808   -9.8183   14.6912 O   0  0  0  0  0  0  0  0  0  0  0  0
   -0.1385   -8.4365   15.7001 C   0  0  0  0  0  0  0  0  0  0  0  0
    1.0223   -7.7507   16.6860 C   0  0  0  0  0  0  0  0  0  0  0  0
    1.8299   -8.0839   17.7667 C   0  0  0  0  0  0  0  0  0  0  0  0
    2.6750   -7.0597   18.1402 N   0  0  0  0  0  0  0  0  0  0  0  0
    2.3013   -6.0340   17.4207 C   0  0  0  0  0  0  0  0  0  0  0  0
    1.2406   -6.3616   16.6262 N   0  0  0  0  0  0  0  0  0  0  0  0
    1.0450  -12.7916   11.1362 H   0  0  0  0  0  0  0  0  0  0  0  0
    0.5656  -11.6943   12.2543 H   0  0  0  0  0  0  0  0  0  0  0  0
   -0.5706  -12.0797   11.1330 H   0  0  0  0  0  0  0  0  0  0  0  0
   -0.6017  -14.5445   11.7310 H   0  0  0  0  0  0  0  0  0  0  0  0
    0.6207  -14.2586   12.9156 H   0  0  0  0  0  0  0  0  0  0  0  0
   -1.1435  -14.1328   14.4150 H   0  0  0  0  0  0  0  0  0  0  0  0
   -3.6582  -15.0833   13.2083 H   0  0  0  0  0  0  0  0  0  0  0  0
   -3.7235  -13.5154   13.6896 H   0  0  0  0  0  0  0  0  0  0  0  0
   -5.9888  -13.8495   13.5650 H   0  0  0  0  0  0  0  0  0  0  0  0
   -7.6417  -13.1022   12.7032 H   0  0  0  0  0  0  0  0  0  0  0  0
   -8.3850  -15.9903   13.1575 H   0  0  0  0  0  0  0  0  0  0  0  0
   -8.0947  -14.7778   14.3159 H   0  0  0  0  0  0  0  0  0  0  0  0
  -10.1700  -13.7682   14.1198 H   0  0  0  0  0  0  0  0  0  0  0  0
  -10.6705  -15.2565   13.3041 H   0  0  0  0  0  0  0  0  0  0  0  0
  -10.3680  -12.6047   12.2019 H   0  0  0  0  0  0  0  0  0  0  0  0
  -10.9069  -14.0593   11.3536 H   0  0  0  0  0  0  0  0  0  0  0  0
    0.5375  -11.8995   14.2912 H   0  0  0  0  0  0  0  0  0  0  0  0
   -0.6026   -8.5315   16.7251 H   0  0  0  0  0  0  0  0  0  0  0  0
   -0.2885   -7.5305   15.0516 H   0  0  0  0  0  0  0  0  0  0  0  0
    1.8942   -9.0313   18.2715 H   0  0  0  0  0  0  0  0  0  0  0  0
    2.7283   -5.0404   17.4496 H   0  0  0  0  0  0  0  0  0  0  0  0
    0.7702   -5.7231   16.0013 H   0  0  0  0  0  0  0  0  0  0  0  0
  1  2  1  0
  2  3  1  0
  3  4  1  0
  4  5  1  0
  5  6  1  0
  6  7  2  0
  6  8  1  0
  8  9  1  0
  9 10  1  0
 10 11  1  0
 11 12  1  0
  3 13  1  0
 13 14  1  0
 14 15  2  0
 14 16  1  0
 16 17  1  0
 17 18  2  0
 18 19  1  0
 19 20  2  0
 20 21  1  0
 12  8  1  0
 21 17  1  0
  1 22  1  0
  1 23  1  0
  1 24  1  0
  2 25  1  0
  2 26  1  0
  3 27  1  0
  4 28  1  0
  4 29  1  0
  5 30  1  0
  8 31  1  0
  9 32  1  0
  9 33  1  0
 10 34  1  0
 10 35  1  0
 11 36  1  0
 11 37  1  0
 13 38  1  0
 16 39  1  0
 16 40  1  0
 18 41  1  0
 20 42  1  0
 21 43  1  0
M  END
>  <Energy>  (1121) 
845.12362883316109

>  <compound_id>  (1121) 
6422

>  <target_id>  (1121) 
1

>  <reference_id>  (1121) 
114

>  <inspiration_ids>  (1121) 
[114, 28]

>  <energy_score>  (1121) 
767.1924894039014

>  <distance_score>  (1121) 
11.570900763675946

>  <path>  (1121) 
/opt/xchem-fragalysis-2/maxwin/BulkDock/SCRATCH/511018/C6422-P114/C6422-P114.minimised.mol

>  <scratch_subdir>  (1121) 
/opt/xchem-fragalysis-2/maxwin/BulkDock/SCRATCH/511018/C6422-P114

>  <fragmenstein_runtime>  (1121) 
27.779122829437256

>  <fragmenstein_outcome>  (1121) 
too moved

>  <fragmenstein_mode>  (1121) 
expansion

>  <fragmenstein_error>  (1121) 


$$$$
C6422-P28
     RDKit          3D

 43 44  0  0  0  0  0  0  0  0999 V2000
    0.1049  -12.3733   12.7438 C   0  0  0  0  0  0  0  0  0  0  0  0
    0.4284  -13.6481   13.6300 C   0  0  0  0  0  0  0  0  0  0  0  0
    0.8606  -14.0650   15.7524 C   0  0  0  0  0  0  0  0  0  0  0  0
   -1.1642  -14.0595   16.0007 C   0  0  0  0  0  0  0  0  0  0  0  0
   -2.7161  -14.8860   15.0397 N   0  0  0  0  0  0  0  0  0  0  0  0
   -3.7358  -16.1710   15.4782 C   0  0  0  0  0  0  0  0  0  0  0  0
   -3.7618  -16.8288   16.5092 O   0  0  0  0  0  0  0  0  0  0  0  0
   -5.1011  -16.4364   14.0877 C   0  0  0  0  0  0  0  0  0  0  0  0
   -5.7181  -15.1834   12.9278 C   0  0  0  0  0  0  0  0  0  0  0  0
   -6.7817  -15.7368   12.1101 C   0  0  0  0  0  0  0  0  0  0  0  0
   -6.9113  -17.0886   12.6707 C   0  0  0  0  0  0  0  0  0  0  0  0
   -5.9502  -17.4644   13.6000 O   0  0  0  0  0  0  0  0  0  0  0  0
    1.9735  -12.5610   15.0006 N   0  0  0  0  0  0  0  0  0  0  0  0
    3.4479  -11.4986   15.7477 C   0  0  0  0  0  0  0  0  0  0  0  0
    3.8756  -11.5466   16.8841 O   0  0  0  0  0  0  0  0  0  0  0  0
    4.1600  -10.2445   14.3122 C   0  0  0  0  0  0  0  0  0  0  0  0
    4.2432   -8.3109   13.8602 C   0  0  0  0  0  0  0  0  0  0  0  0
    5.1901   -7.2389   13.8605 C   0  0  0  0  0  0  0  0  0  0  0  0
    4.4851   -6.1276   13.8360 N   0  0  0  0  0  0  0  0  0  0  0  0
    4.2629   -6.1919   12.5614 C   0  0  0  0  0  0  0  0  0  0  0  0
    3.9109   -7.5220   12.4791 N   0  0  0  0  0  0  0  0  0  0  0  0
    0.8339  -11.6861   12.3492 H   0  0  0  0  0  0  0  0  0  0  0  0
   -0.6481  -11.7524   13.1737 H   0  0  0  0  0  0  0  0  0  0  0  0
   -0.2693  -12.7564   11.7898 H   0  0  0  0  0  0  0  0  0  0  0  0
   -0.5083  -14.0593   13.2309 H   0  0  0  0  0  0  0  0  0  0  0  0
    1.1016  -14.0820   12.8681 H   0  0  0  0  0  0  0  0  0  0  0  0
    0.9415  -13.7024   16.7545 H   0  0  0  0  0  0  0  0  0  0  0  0
   -1.1761  -13.8769   14.9680 H   0  0  0  0  0  0  0  0  0  0  0  0
   -1.5754  -13.5118   16.8565 H   0  0  0  0  0  0  0  0  0  0  0  0
   -2.9014  -14.6131   14.0725 H   0  0  0  0  0  0  0  0  0  0  0  0
   -5.7719  -16.3351   14.9207 H   0  0  0  0  0  0  0  0  0  0  0  0
   -6.2921  -14.2765   13.1944 H   0  0  0  0  0  0  0  0  0  0  0  0
   -4.8137  -14.6538   12.7089 H   0  0  0  0  0  0  0  0  0  0  0  0
   -6.6311  -15.6585   11.0424 H   0  0  0  0  0  0  0  0  0  0  0  0
   -7.7110  -15.1784   12.2876 H   0  0  0  0  0  0  0  0  0  0  0  0
   -6.6462  -17.8279   11.9471 H   0  0  0  0  0  0  0  0  0  0  0  0
   -7.9169  -17.1953   13.0754 H   0  0  0  0  0  0  0  0  0  0  0  0
    1.7678  -12.2694   14.0755 H   0  0  0  0  0  0  0  0  0  0  0  0
    5.1550  -10.6141   14.0386 H   0  0  0  0  0  0  0  0  0  0  0  0
    3.5059  -10.3457   13.5033 H   0  0  0  0  0  0  0  0  0  0  0  0
    6.2150   -7.3652   14.1967 H   0  0  0  0  0  0  0  0  0  0  0  0
    4.0534   -5.3880   11.8691 H   0  0  0  0  0  0  0  0  0  0  0  0
    3.2421   -7.9497   11.8652 H   0  0  0  0  0  0  0  0  0  0  0  0
  1  2  1  0
  2  3  1  0
  3  4  1  0
  4  5  1  0
  5  6  1  0
  6  7  2  0
  6  8  1  0
  8  9  1  0
  9 10  1  0
 10 11  1  0
 11 12  1  0
  3 13  1  0
 13 14  1  0
 14 15  2  0
 14 16  1  0
 16 17  1  0
 17 18  2  0
 18 19  1  0
 19 20  2  0
 20 21  1  0
 12  8  1  0
 21 17  1  0
  1 22  1  0
  1 23  1  0
  1 24  1  0
  2 25  1  0
  2 26  1  0
  3 27  1  0
  4 28  1  0
  4 29  1  0
  5 30  1  0
  8 31  1  0
  9 32  1  0
  9 33  1  0
 10 34  1  0
 10 35  1  0
 11 36  1  0
 11 37  1  0
 13 38  1  0
 16 39  1  0
 16 40  1  0
 18 41  1  0
 20 42  1  0
 21 43  1  0
M  END
>  <Energy>  (1122) 
1003.7222923516516

>  <compound_id>  (1122) 
6422

>  <target_id>  (1122) 
1

>  <reference_id>  (1122) 
28

>  <inspiration_ids>  (1122) 
[114, 28]

>  <energy_score>  (1122) 
925.7911529223917

>  <distance_score>  (1122) 
10.413639545841363

>  <path>  (1122) 
/opt/xchem-fragalysis-2/maxwin/BulkDock/SCRATCH/511018/C6422-P28/C6422-P28.minimised.mol

>  <scratch_subdir>  (1122) 
/opt/xchem-fragalysis-2/maxwin/BulkDock/SCRATCH/511018/C6422-P28

>  <fragmenstein_runtime>  (1122) 
27.411865949630737

>  <fragmenstein_outcome>  (1122) 
too moved

>  <fragmenstein_mode>  (1122) 
expansion

>  <fragmenstein_error>  (1122) 


$$$$
C6423-P114
     RDKit          3D

 46 47  0  0  0  0  0  0  0  0999 V2000
    0.6004  -18.0252   11.9982 C   0  0  0  0  0  0  0  0  0  0  0  0
    1.2249  -16.7320   12.4626 C   0  0  0  0  0  0  0  0  0  0  0  0
    1.1043  -14.7957   13.0800 C   0  0  0  0  0  0  0  0  0  0  0  0
    0.2933  -14.4568   11.6918 C   0  0  0  0  0  0  0  0  0  0  0  0
    0.0124  -15.6444   10.5452 N   0  0  0  0  0  0  0  0  0  0  0  0
    0.9673  -16.3021    9.5087 C   0  0  0  0  0  0  0  0  0  0  0  0
    2.1633  -16.1650    9.3428 O   0  0  0  0  0  0  0  0  0  0  0  0
    0.2118  -17.2493    8.3928 C   0  0  0  0  0  0  0  0  0  0  0  0
    0.6881  -18.6899    8.2691 C   0  0  0  0  0  0  0  0  0  0  0  0
   -0.3966  -19.3787    7.4581 C   0  0  0  0  0  0  0  0  0  0  0  0
   -1.5557  -18.4000    7.4002 C   0  0  0  0  0  0  0  0  0  0  0  0
   -1.2108  -17.2545    8.1917 O   0  0  0  0  0  0  0  0  0  0  0  0
    1.9575  -13.2230   14.2199 N   0  0  0  0  0  0  0  0  0  0  0  0
    4.0491  -12.4876   14.3948 C   0  0  0  0  0  0  0  0  0  0  0  0
    5.1269  -12.9658   13.9736 O   0  0  0  0  0  0  0  0  0  0  0  0
    4.3283  -10.7910   15.0119 C   0  0  0  0  0  0  0  0  0  0  0  0
    4.7667   -8.9868   13.9534 C   0  0  0  0  0  0  0  0  0  0  0  0
    6.2371   -8.1462   13.8827 C   0  0  0  0  0  0  0  0  0  0  0  0
    6.9449   -7.6792   15.0375 N   0  0  0  0  0  0  0  0  0  0  0  0
    6.1174   -6.7336   15.2612 C   0  0  0  0  0  0  0  0  0  0  0  0
    4.8159   -7.1135   14.0442 N   0  0  0  0  0  0  0  0  0  0  0  0
    3.8615   -6.0335   14.7103 C   0  0  0  0  0  0  0  0  0  0  0  0
    1.2440  -18.5018   11.2427 H   0  0  0  0  0  0  0  0  0  0  0  0
   -0.2855  -17.7560   11.4923 H   0  0  0  0  0  0  0  0  0  0  0  0
    0.5330  -18.8264   12.7362 H   0  0  0  0  0  0  0  0  0  0  0  0
    1.4793  -16.5512   11.4384 H   0  0  0  0  0  0  0  0  0  0  0  0
    2.2133  -17.2529   12.6678 H   0  0  0  0  0  0  0  0  0  0  0  0
    0.1210  -14.6442   13.5418 H   0  0  0  0  0  0  0  0  0  0  0  0
   -0.7320  -14.2616   11.9119 H   0  0  0  0  0  0  0  0  0  0  0  0
    0.6206  -13.4781   11.3591 H   0  0  0  0  0  0  0  0  0  0  0  0
   -0.9399  -15.9226   10.3465 H   0  0  0  0  0  0  0  0  0  0  0  0
    0.5732  -16.7687    7.4662 H   0  0  0  0  0  0  0  0  0  0  0  0
    1.6630  -18.7450    7.7716 H   0  0  0  0  0  0  0  0  0  0  0  0
    0.8258  -19.1754    9.2364 H   0  0  0  0  0  0  0  0  0  0  0  0
   -0.0452  -19.6088    6.4460 H   0  0  0  0  0  0  0  0  0  0  0  0
   -0.6934  -20.3323    7.9070 H   0  0  0  0  0  0  0  0  0  0  0  0
   -1.7221  -18.0591    6.3726 H   0  0  0  0  0  0  0  0  0  0  0  0
   -2.4951  -18.8296    7.7615 H   0  0  0  0  0  0  0  0  0  0  0  0
    1.2892  -12.6524   14.7411 H   0  0  0  0  0  0  0  0  0  0  0  0
    5.3187  -10.9293   14.5882 H   0  0  0  0  0  0  0  0  0  0  0  0
    3.8261  -10.7728   15.9865 H   0  0  0  0  0  0  0  0  0  0  0  0
    6.6383   -7.7842   12.9132 H   0  0  0  0  0  0  0  0  0  0  0  0
    5.9082   -5.9889   16.0134 H   0  0  0  0  0  0  0  0  0  0  0  0
    3.2937   -6.4988   15.5094 H   0  0  0  0  0  0  0  0  0  0  0  0
    4.4255   -5.2518   15.2260 H   0  0  0  0  0  0  0  0  0  0  0  0
    3.4054   -5.4223   13.9248 H   0  0  0  0  0  0  0  0  0  0  0  0
  1  2  1  0
  2  3  1  0
  3  4  1  0
  4  5  1  0
  5  6  1  0
  6  7  2  0
  6  8  1  0
  8  9  1  0
  9 10  1  0
 10 11  1  0
 11 12  1  0
  3 13  1  0
 13 14  1  0
 14 15  2  0
 14 16  1  0
 16 17  1  0
 17 18  2  0
 18 19  1  0
 19 20  2  0
 20 21  1  0
 21 22  1  0
 12  8  1  0
 21 17  1  0
  1 23  1  0
  1 24  1  0
  1 25  1  0
  2 26  1  0
  2 27  1  0
  3 28  1  0
  4 29  1  0
  4 30  1  0
  5 31  1  0
  8 32  1  0
  9 33  1  0
  9 34  1  0
 10 35  1  0
 10 36  1  0
 11 37  1  0
 11 38  1  0
 13 39  1  0
 16 40  1  0
 16 41  1  0
 18 42  1  0
 20 43  1  0
 22 44  1  0
 22 45  1  0
 22 46  1  0
M  END
>  <Energy>  (1123) 
1218.5482088309691

>  <compound_id>  (1123) 
6423

>  <target_id>  (1123) 
1

>  <reference_id>  (1123) 
114

>  <inspiration_ids>  (1123) 
[114, 28]

>  <energy_score>  (1123) 
1133.8581628684913

>  <distance_score>  (1123) 
12.074785361154392

>  <path>  (1123) 
/opt/xchem-fragalysis-2/maxwin/BulkDock/SCRATCH/511018/C6423-P114/C6423-P114.minimised.mol

>  <scratch_subdir>  (1123) 
/opt/xchem-fragalysis-2/maxwin/BulkDock/SCRATCH/511018/C6423-P114

>  <fragmenstein_runtime>  (1123) 
20.544281005859375

>  <fragmenstein_outcome>  (1123) 
too moved

>  <fragmenstein_mode>  (1123) 
expansion

>  <fragmenstein_error>  (1123) 


$$$$
C6423-P28
     RDKit          3D

 46 47  0  0  0  0  0  0  0  0999 V2000
    3.6585  -16.8520   11.6263 C   0  0  0  0  0  0  0  0  0  0  0  0
    3.2660  -15.6088   12.9800 C   0  0  0  0  0  0  0  0  0  0  0  0
    2.5460  -13.4350   13.5417 C   0  0  0  0  0  0  0  0  0  0  0  0
    0.9992  -13.5280   12.4150 C   0  0  0  0  0  0  0  0  0  0  0  0
    0.7958  -14.8712   11.7831 N   0  0  0  0  0  0  0  0  0  0  0  0
   -0.2879  -15.4118   11.1180 C   0  0  0  0  0  0  0  0  0  0  0  0
   -1.3847  -14.9829   10.9365 O   0  0  0  0  0  0  0  0  0  0  0  0
    0.2193  -16.8064   10.4552 C   0  0  0  0  0  0  0  0  0  0  0  0
    1.2455  -16.8978    9.3220 C   0  0  0  0  0  0  0  0  0  0  0  0
    1.6137  -18.3700    9.2934 C   0  0  0  0  0  0  0  0  0  0  0  0
    1.3917  -18.8421   10.7101 C   0  0  0  0  0  0  0  0  0  0  0  0
    0.5960  -17.8426   11.3705 O   0  0  0  0  0  0  0  0  0  0  0  0
    4.5697  -12.5360   14.1133 N   0  0  0  0  0  0  0  0  0  0  0  0
    5.2011  -10.8269   14.0825 C   0  0  0  0  0  0  0  0  0  0  0  0
    4.4832   -9.8968   13.8088 O   0  0  0  0  0  0  0  0  0  0  0  0
    7.1663  -10.1649   14.2896 C   0  0  0  0  0  0  0  0  0  0  0  0
    8.6105   -9.9387   15.5052 C   0  0  0  0  0  0  0  0  0  0  0  0
    9.8697  -10.5924   15.3953 C   0  0  0  0  0  0  0  0  0  0  0  0
   10.8530   -9.8914   16.0094 N   0  0  0  0  0  0  0  0  0  0  0  0
   10.1988   -8.8282   16.3813 C   0  0  0  0  0  0  0  0  0  0  0  0
    8.8850   -9.1517   16.6195 N   0  0  0  0  0  0  0  0  0  0  0  0
    8.6246   -9.6262   17.9967 C   0  0  0  0  0  0  0  0  0  0  0  0
    4.3927  -16.5312   10.8807 H   0  0  0  0  0  0  0  0  0  0  0  0
    2.7572  -17.0658   11.1191 H   0  0  0  0  0  0  0  0  0  0  0  0
    4.0571  -17.7428   12.1274 H   0  0  0  0  0  0  0  0  0  0  0  0
    4.5207  -15.5379   12.5630 H   0  0  0  0  0  0  0  0  0  0  0  0
    3.5863  -16.6044   13.9788 H   0  0  0  0  0  0  0  0  0  0  0  0
    1.9427  -12.7407   14.3475 H   0  0  0  0  0  0  0  0  0  0  0  0
    0.9306  -12.7601   11.6422 H   0  0  0  0  0  0  0  0  0  0  0  0
    0.1282  -13.3603   13.0411 H   0  0  0  0  0  0  0  0  0  0  0  0
    1.5188  -15.5429   11.8063 H   0  0  0  0  0  0  0  0  0  0  0  0
   -0.6800  -17.0404    9.9080 H   0  0  0  0  0  0  0  0  0  0  0  0
    2.1083  -16.2488    9.4833 H   0  0  0  0  0  0  0  0  0  0  0  0
    0.8683  -16.6219    8.3344 H   0  0  0  0  0  0  0  0  0  0  0  0
    2.6385  -18.5419    8.9509 H   0  0  0  0  0  0  0  0  0  0  0  0
    0.9527  -18.9108    8.6064 H   0  0  0  0  0  0  0  0  0  0  0  0
    0.9292  -19.8210   10.7423 H   0  0  0  0  0  0  0  0  0  0  0  0
    2.3210  -18.9965   11.2628 H   0  0  0  0  0  0  0  0  0  0  0  0
    5.3483  -13.1621   14.2798 H   0  0  0  0  0  0  0  0  0  0  0  0
    8.1059  -10.7795   14.1003 H   0  0  0  0  0  0  0  0  0  0  0  0
    7.3584   -9.1280   13.8615 H   0  0  0  0  0  0  0  0  0  0  0  0
   10.1412  -11.4428   14.7914 H   0  0  0  0  0  0  0  0  0  0  0  0
   10.6235   -7.8626   16.5688 H   0  0  0  0  0  0  0  0  0  0  0  0
    8.1412   -8.8153   18.5466 H   0  0  0  0  0  0  0  0  0  0  0  0
    9.5704   -9.8839   18.4851 H   0  0  0  0  0  0  0  0  0  0  0  0
    8.0048  -10.5209   17.9768 H   0  0  0  0  0  0  0  0  0  0  0  0
  1  2  1  0
  2  3  1  0
  3  4  1  0
  4  5  1  0
  5  6  1  0
  6  7  2  0
  6  8  1  0
  8  9  1  0
  9 10  1  0
 10 11  1  0
 11 12  1  0
  3 13  1  0
 13 14  1  0
 14 15  2  0
 14 16  1  0
 16 17  1  0
 17 18  2  0
 18 19  1  0
 19 20  2  0
 20 21  1  0
 21 22  1  0
 12  8  1  0
 21 17  1  0
  1 23  1  0
  1 24  1  0
  1 25  1  0
  2 26  1  0
  2 27  1  0
  3 28  1  0
  4 29  1  0
  4 30  1  0
  5 31  1  0
  8 32  1  0
  9 33  1  0
  9 34  1  0
 10 35  1  0
 10 36  1  0
 11 37  1  0
 11 38  1  0
 13 39  1  0
 16 40  1  0
 16 41  1  0
 18 42  1  0
 20 43  1  0
 22 44  1  0
 22 45  1  0
 22 46  1  0
M  END
>  <Energy>  (1124) 
1099.209648895607

>  <compound_id>  (1124) 
6423

>  <target_id>  (1124) 
1

>  <reference_id>  (1124) 
28

>  <inspiration_ids>  (1124) 
[114, 28]

>  <energy_score>  (1124) 
1014.5196029331296

>  <distance_score>  (1124) 
11.9002331600084

>  <path>  (1124) 
/opt/xchem-fragalysis-2/maxwin/BulkDock/SCRATCH/511018/C6423-P28/C6423-P28.minimised.mol

>  <scratch_subdir>  (1124) 
/opt/xchem-fragalysis-2/maxwin/BulkDock/SCRATCH/511018/C6423-P28

>  <fragmenstein_runtime>  (1124) 
23.972679615020752

>  <fragmenstein_outcome>  (1124) 
too moved

>  <fragmenstein_mode>  (1124) 
expansion

>  <fragmenstein_error>  (1124) 


$$$$
C6424-P114
     RDKit          3D

 44 46  0  0  0  0  0  0  0  0999 V2000
   -3.7976  -16.3004    6.6992 O   0  0  0  0  0  0  0  0  0  0  0  0
   -4.3837  -16.7554    7.6566 C   0  0  0  0  0  0  0  0  0  0  0  0
   -3.3788  -17.1424    8.7499 C   0  0  0  0  0  0  0  0  0  0  0  0
   -2.8799  -18.3882    8.6577 F   0  0  0  0  0  0  0  0  0  0  0  0
   -2.6210  -16.1926    9.3372 C   0  0  0  0  0  0  0  0  0  0  0  0
   -1.3295  -16.3770    9.9642 C   0  0  0  0  0  0  0  0  0  0  0  0
   -0.1811  -17.1586    9.8577 C   0  0  0  0  0  0  0  0  0  0  0  0
    0.8101  -16.7122   10.7067 N   0  0  0  0  0  0  0  0  0  0  0  0
    0.2659  -15.7208   11.3617 C   0  0  0  0  0  0  0  0  0  0  0  0
   -0.9573  -15.4163   10.8794 N   0  0  0  0  0  0  0  0  0  0  0  0
   -5.8279  -17.0585    7.8449 N   0  0  0  0  0  0  0  0  0  0  0  0
   -7.0082  -16.7868    6.9444 C   0  0  0  0  0  0  0  0  0  0  0  0
   -8.4941  -16.6681    7.3501 C   0  0  0  0  0  0  0  0  0  0  0  0
   -8.9308  -15.2410    7.6443 C   0  0  0  0  0  0  0  0  0  0  0  0
   -9.3426  -14.7249    6.2935 C   0  0  0  0  0  0  0  0  0  0  0  0
  -10.0278  -15.9355    5.7193 C   0  0  0  0  0  0  0  0  0  0  0  0
   -9.3207  -17.0687    6.2263 O   0  0  0  0  0  0  0  0  0  0  0  0
   -6.1398  -18.5694    7.4118 C   0  0  0  0  0  0  0  0  0  0  0  0
   -5.0010  -20.0916    8.4534 C   0  0  0  0  0  0  0  0  0  0  0  0
   -5.8730  -21.8395    7.4664 C   0  0  0  0  0  0  0  0  0  0  0  0
   -7.6434  -21.5877    6.1843 C   0  0  0  0  0  0  0  0  0  0  0  0
   -7.7370  -19.4342    6.0581 C   0  0  0  0  0  0  0  0  0  0  0  0
   -3.0177  -15.1877    9.2901 H   0  0  0  0  0  0  0  0  0  0  0  0
   -0.0182  -18.0007    9.1967 H   0  0  0  0  0  0  0  0  0  0  0  0
    0.6373  -15.1618   12.1999 H   0  0  0  0  0  0  0  0  0  0  0  0
   -1.5686  -14.7261   11.2784 H   0  0  0  0  0  0  0  0  0  0  0  0
   -6.8678  -17.1554    5.9138 H   0  0  0  0  0  0  0  0  0  0  0  0
   -6.7460  -15.7400    6.7103 H   0  0  0  0  0  0  0  0  0  0  0  0
   -8.7543  -17.3604    8.1263 H   0  0  0  0  0  0  0  0  0  0  0  0
   -9.8340  -15.2363    8.2622 H   0  0  0  0  0  0  0  0  0  0  0  0
   -8.1690  -14.6262    8.1310 H   0  0  0  0  0  0  0  0  0  0  0  0
   -8.4617  -14.4641    5.6963 H   0  0  0  0  0  0  0  0  0  0  0  0
   -9.9953  -13.8490    6.3387 H   0  0  0  0  0  0  0  0  0  0  0  0
  -11.0675  -15.9945    6.0532 H   0  0  0  0  0  0  0  0  0  0  0  0
  -10.0127  -15.9498    4.6261 H   0  0  0  0  0  0  0  0  0  0  0  0
   -5.2462  -18.4110    6.6877 H   0  0  0  0  0  0  0  0  0  0  0  0
   -4.7382  -20.2437    9.5039 H   0  0  0  0  0  0  0  0  0  0  0  0
   -3.9454  -20.0303    8.0477 H   0  0  0  0  0  0  0  0  0  0  0  0
   -5.0511  -22.0694    6.7071 H   0  0  0  0  0  0  0  0  0  0  0  0
   -5.6663  -22.8267    7.9153 H   0  0  0  0  0  0  0  0  0  0  0  0
   -7.4442  -21.9751    5.1514 H   0  0  0  0  0  0  0  0  0  0  0  0
   -8.5787  -22.0958    6.5238 H   0  0  0  0  0  0  0  0  0  0  0  0
   -8.7964  -19.2041    6.3041 H   0  0  0  0  0  0  0  0  0  0  0  0
   -7.5792  -19.1622    4.9850 H   0  0  0  0  0  0  0  0  0  0  0  0
  1  2  2  0
  2  3  1  0
  3  4  1  0
  3  5  2  3
  5  6  1  0
  6  7  2  0
  7  8  1  0
  8  9  2  0
  9 10  1  0
  2 11  1  0
 11 12  1  0
 12 13  1  0
 13 14  1  0
 14 15  1  0
 15 16  1  0
 16 17  1  0
 11 18  1  0
 18 19  1  0
 19 20  1  0
 20 21  1  0
 21 22  1  0
 10  6  1  0
 17 13  1  0
 22 18  1  0
  5 23  1  0
  7 24  1  0
  9 25  1  0
 10 26  1  0
 12 27  1  0
 12 28  1  0
 13 29  1  0
 14 30  1  0
 14 31  1  0
 15 32  1  0
 15 33  1  0
 16 34  1  0
 16 35  1  0
 18 36  1  0
 19 37  1  0
 19 38  1  0
 20 39  1  0
 20 40  1  0
 21 41  1  0
 21 42  1  0
 22 43  1  0
 22 44  1  0
M  END
>  <Energy>  (1125) 
748.50074252762761

>  <compound_id>  (1125) 
6424

>  <target_id>  (1125) 
1

>  <reference_id>  (1125) 
114

>  <inspiration_ids>  (1125) 
[114, 28]

>  <energy_score>  (1125) 
663.5373080954031

>  <distance_score>  (1125) 
15.17288431040434

>  <path>  (1125) 
/opt/xchem-fragalysis-2/maxwin/BulkDock/SCRATCH/511018/C6424-P114/C6424-P114.minimised.mol

>  <scratch_subdir>  (1125) 
/opt/xchem-fragalysis-2/maxwin/BulkDock/SCRATCH/511018/C6424-P114

>  <fragmenstein_runtime>  (1125) 
17.57190990447998

>  <fragmenstein_outcome>  (1125) 
too moved

>  <fragmenstein_mode>  (1125) 
expansion

>  <fragmenstein_error>  (1125) 


$$$$
C6424-P28
     RDKit          3D

 44 46  0  0  0  0  0  0  0  0999 V2000
   -3.8467  -16.2725    9.3679 O   0  0  0  0  0  0  0  0  0  0  0  0
   -3.9878  -17.1164    8.5132 C   0  0  0  0  0  0  0  0  0  0  0  0
   -2.5749  -17.8319    8.0951 C   0  0  0  0  0  0  0  0  0  0  0  0
   -2.7967  -18.3350    6.8395 F   0  0  0  0  0  0  0  0  0  0  0  0
   -1.2163  -17.9206    8.3535 C   0  0  0  0  0  0  0  0  0  0  0  0
   -0.1008  -17.4722    9.1749 C   0  0  0  0  0  0  0  0  0  0  0  0
    0.2223  -16.7429   10.3138 C   0  0  0  0  0  0  0  0  0  0  0  0
    1.5635  -16.4676   10.4280 N   0  0  0  0  0  0  0  0  0  0  0  0
    2.1190  -17.0213    9.3906 C   0  0  0  0  0  0  0  0  0  0  0  0
    1.1780  -17.6441    8.6243 N   0  0  0  0  0  0  0  0  0  0  0  0
   -5.2355  -17.5178    7.7149 N   0  0  0  0  0  0  0  0  0  0  0  0
   -6.5951  -16.9108    7.6791 C   0  0  0  0  0  0  0  0  0  0  0  0
   -6.7099  -15.4833    8.1899 C   0  0  0  0  0  0  0  0  0  0  0  0
   -7.9889  -14.8385    7.6638 C   0  0  0  0  0  0  0  0  0  0  0  0
   -7.6977  -13.3981    7.9685 C   0  0  0  0  0  0  0  0  0  0  0  0
   -6.2356  -13.3104    7.5754 C   0  0  0  0  0  0  0  0  0  0  0  0
   -5.6822  -14.6293    7.6768 O   0  0  0  0  0  0  0  0  0  0  0  0
   -6.1900  -18.9094    8.6034 C   0  0  0  0  0  0  0  0  0  0  0  0
   -4.7585  -20.2367    7.8933 C   0  0  0  0  0  0  0  0  0  0  0  0
   -5.2943  -21.6753    6.4977 C   0  0  0  0  0  0  0  0  0  0  0  0
   -7.3002  -21.3913    6.2201 C   0  0  0  0  0  0  0  0  0  0  0  0
   -8.0335  -19.6886    7.6409 C   0  0  0  0  0  0  0  0  0  0  0  0
   -0.8083  -18.5720    7.5704 H   0  0  0  0  0  0  0  0  0  0  0  0
   -0.4544  -16.2429   10.9787 H   0  0  0  0  0  0  0  0  0  0  0  0
    3.1711  -17.0100    9.1420 H   0  0  0  0  0  0  0  0  0  0  0  0
    1.3786  -18.1106    7.7527 H   0  0  0  0  0  0  0  0  0  0  0  0
   -7.5330  -17.4245    7.8355 H   0  0  0  0  0  0  0  0  0  0  0  0
   -6.6584  -16.7905    6.5822 H   0  0  0  0  0  0  0  0  0  0  0  0
   -6.6274  -15.4416    9.2803 H   0  0  0  0  0  0  0  0  0  0  0  0
   -8.9250  -15.2007    8.0847 H   0  0  0  0  0  0  0  0  0  0  0  0
   -8.0660  -14.9602    6.5745 H   0  0  0  0  0  0  0  0  0  0  0  0
   -8.3253  -12.6930    7.4171 H   0  0  0  0  0  0  0  0  0  0  0  0
   -7.8171  -13.1984    9.0397 H   0  0  0  0  0  0  0  0  0  0  0  0
   -6.1253  -12.9870    6.5349 H   0  0  0  0  0  0  0  0  0  0  0  0
   -5.6752  -12.6177    8.2056 H   0  0  0  0  0  0  0  0  0  0  0  0
   -6.4710  -18.8709    9.6430 H   0  0  0  0  0  0  0  0  0  0  0  0
   -4.2869  -20.7410    8.7528 H   0  0  0  0  0  0  0  0  0  0  0  0
   -4.0181  -19.6953    7.3364 H   0  0  0  0  0  0  0  0  0  0  0  0
   -5.0924  -22.7010    6.8584 H   0  0  0  0  0  0  0  0  0  0  0  0
   -4.7543  -21.4964    5.5494 H   0  0  0  0  0  0  0  0  0  0  0  0
   -7.7218  -22.4426    6.1799 H   0  0  0  0  0  0  0  0  0  0  0  0
   -7.4010  -21.1142    5.1195 H   0  0  0  0  0  0  0  0  0  0  0  0
   -8.5330  -18.8740    7.0324 H   0  0  0  0  0  0  0  0  0  0  0  0
   -8.8066  -19.8925    8.4236 H   0  0  0  0  0  0  0  0  0  0  0  0
  1  2  2  0
  2  3  1  0
  3  4  1  0
  3  5  2  3
  5  6  1  0
  6  7  2  0
  7  8  1  0
  8  9  2  0
  9 10  1  0
  2 11  1  0
 11 12  1  0
 12 13  1  0
 13 14  1  0
 14 15  1  0
 15 16  1  0
 16 17  1  0
 11 18  1  0
 18 19  1  0
 19 20  1  0
 20 21  1  0
 21 22  1  0
 10  6  1  0
 17 13  1  0
 22 18  1  0
  5 23  1  0
  7 24  1  0
  9 25  1  0
 10 26  1  0
 12 27  1  0
 12 28  1  0
 13 29  1  0
 14 30  1  0
 14 31  1  0
 15 32  1  0
 15 33  1  0
 16 34  1  0
 16 35  1  0
 18 36  1  0
 19 37  1  0
 19 38  1  0
 20 39  1  0
 20 40  1  0
 21 41  1  0
 21 42  1  0
 22 43  1  0
 22 44  1  0
M  END
>  <Energy>  (1126) 
741.30010583410001

>  <compound_id>  (1126) 
6424

>  <target_id>  (1126) 
1

>  <reference_id>  (1126) 
28

>  <inspiration_ids>  (1126) 
[114, 28]

>  <energy_score>  (1126) 
656.3366714018691

>  <distance_score>  (1126) 
15.337915806388725

>  <path>  (1126) 
/opt/xchem-fragalysis-2/maxwin/BulkDock/SCRATCH/511018/C6424-P28/C6424-P28.minimised.mol

>  <scratch_subdir>  (1126) 
/opt/xchem-fragalysis-2/maxwin/BulkDock/SCRATCH/511018/C6424-P28

>  <fragmenstein_runtime>  (1126) 
15.884469747543335

>  <fragmenstein_outcome>  (1126) 
too moved

>  <fragmenstein_mode>  (1126) 
expansion

>  <fragmenstein_error>  (1126) 


$$$$
C6425-P114
     RDKit          3D

 47 49  0  0  0  0  0  0  0  0999 V2000
   -7.8056  -16.1174   13.2915 C   0  0  0  0  0  0  0  0  0  0  0  0
   -6.7801  -16.6619   12.3114 C   0  0  0  0  0  0  0  0  0  0  0  0
   -6.1472  -17.9368   12.7052 N   0  0  0  0  0  0  0  0  0  0  0  0
   -4.8179  -17.3062   13.2468 C   0  0  0  0  0  0  0  0  0  0  0  0
   -3.6613  -16.5572   12.5416 C   0  0  0  0  0  0  0  0  0  0  0  0
   -2.4321  -16.2557   13.1388 C   0  0  0  0  0  0  0  0  0  0  0  0
   -1.6269  -15.8039   12.1374 N   0  0  0  0  0  0  0  0  0  0  0  0
   -2.4055  -15.7514   11.0248 C   0  0  0  0  0  0  0  0  0  0  0  0
   -3.6528  -16.0983   11.2495 N   0  0  0  0  0  0  0  0  0  0  0  0
   -6.4521  -19.6612   12.1227 C   0  0  0  0  0  0  0  0  0  0  0  0
   -8.1457  -20.3822   11.5712 C   0  0  0  0  0  0  0  0  0  0  0  0
   -8.8844  -21.8903   11.8934 C   0  0  0  0  0  0  0  0  0  0  0  0
   -8.4150  -23.1979   11.6858 C   0  0  0  0  0  0  0  0  0  0  0  0
   -9.2005  -24.3747   11.7313 C   0  0  0  0  0  0  0  0  0  0  0  0
  -10.5195  -24.3127   12.0911 C   0  0  0  0  0  0  0  0  0  0  0  0
  -11.0096  -23.0755   12.4364 C   0  0  0  0  0  0  0  0  0  0  0  0
  -10.2097  -21.9057   12.3544 C   0  0  0  0  0  0  0  0  0  0  0  0
   -4.6349  -20.4040   12.0578 C   0  0  0  0  0  0  0  0  0  0  0  0
   -3.9198  -21.3427   11.0133 C   0  0  0  0  0  0  0  0  0  0  0  0
   -2.4790  -21.3083   11.4489 C   0  0  0  0  0  0  0  0  0  0  0  0
   -2.3062  -19.8634   11.7960 C   0  0  0  0  0  0  0  0  0  0  0  0
   -3.5845  -19.3536   12.1478 O   0  0  0  0  0  0  0  0  0  0  0  0
   -8.6305  -16.8120   13.4350 H   0  0  0  0  0  0  0  0  0  0  0  0
   -8.1983  -15.1579   12.9366 H   0  0  0  0  0  0  0  0  0  0  0  0
   -7.3561  -15.8782   14.2581 H   0  0  0  0  0  0  0  0  0  0  0  0
   -6.0625  -15.8247   12.3440 H   0  0  0  0  0  0  0  0  0  0  0  0
   -6.9351  -16.5305   11.2592 H   0  0  0  0  0  0  0  0  0  0  0  0
   -4.3406  -18.0623   13.7415 H   0  0  0  0  0  0  0  0  0  0  0  0
   -5.1047  -16.5789   14.0229 H   0  0  0  0  0  0  0  0  0  0  0  0
   -2.0699  -16.4532   14.1385 H   0  0  0  0  0  0  0  0  0  0  0  0
   -0.6391  -15.5986   12.1907 H   0  0  0  0  0  0  0  0  0  0  0  0
   -2.0336  -15.4577   10.0672 H   0  0  0  0  0  0  0  0  0  0  0  0
   -6.7378  -20.3525   12.8845 H   0  0  0  0  0  0  0  0  0  0  0  0
   -8.9069  -19.6905   11.9397 H   0  0  0  0  0  0  0  0  0  0  0  0
   -8.3425  -20.1998   10.5198 H   0  0  0  0  0  0  0  0  0  0  0  0
   -7.3878  -23.4583   11.5310 H   0  0  0  0  0  0  0  0  0  0  0  0
   -8.7380  -25.3361   11.5217 H   0  0  0  0  0  0  0  0  0  0  0  0
  -11.1358  -25.2019   12.1450 H   0  0  0  0  0  0  0  0  0  0  0  0
  -12.0418  -23.0096   12.7539 H   0  0  0  0  0  0  0  0  0  0  0  0
  -10.6528  -20.9732   12.6909 H   0  0  0  0  0  0  0  0  0  0  0  0
   -4.4622  -20.7590   13.0309 H   0  0  0  0  0  0  0  0  0  0  0  0
   -4.2282  -22.3923   10.9910 H   0  0  0  0  0  0  0  0  0  0  0  0
   -3.9782  -20.9258    9.9997 H   0  0  0  0  0  0  0  0  0  0  0  0
   -2.3308  -21.9330   12.3370 H   0  0  0  0  0  0  0  0  0  0  0  0
   -1.7804  -21.6476   10.6792 H   0  0  0  0  0  0  0  0  0  0  0  0
   -1.6040  -19.7142   12.6214 H   0  0  0  0  0  0  0  0  0  0  0  0
   -1.9432  -19.2887   10.9374 H   0  0  0  0  0  0  0  0  0  0  0  0
  1  2  1  0
  2  3  1  0
  3  4  1  0
  4  5  1  0
  5  6  2  0
  6  7  1  0
  7  8  1  0
  8  9  2  0
  3 10  1  0
 10 11  1  0
 11 12  1  0
 12 13  2  0
 13 14  1  0
 14 15  2  0
 15 16  1  0
 16 17  2  0
 10 18  1  0
 18 19  1  0
 19 20  1  0
 20 21  1  0
 21 22  1  0
  9  5  1  0
 17 12  1  0
 22 18  1  0
  1 23  1  0
  1 24  1  0
  1 25  1  0
  2 26  1  0
  2 27  1  0
  4 28  1  0
  4 29  1  0
  6 30  1  0
  7 31  1  0
  8 32  1  0
 10 33  1  0
 11 34  1  0
 11 35  1  0
 13 36  1  0
 14 37  1  0
 15 38  1  0
 16 39  1  0
 17 40  1  0
 18 41  1  0
 19 42  1  0
 19 43  1  0
 20 44  1  0
 20 45  1  0
 21 46  1  0
 21 47  1  0
M  END
>  <Energy>  (1127) 
350.55011010534486

>  <compound_id>  (1127) 
6425

>  <target_id>  (1127) 
1

>  <reference_id>  (1127) 
114

>  <inspiration_ids>  (1127) 
[114, 28]

>  <energy_score>  (1127) 
220.92514275620454

>  <distance_score>  (1127) 
13.39375869430741

>  <path>  (1127) 
/opt/xchem-fragalysis-2/maxwin/BulkDock/SCRATCH/511018/C6425-P114/C6425-P114.minimised.mol

>  <scratch_subdir>  (1127) 
/opt/xchem-fragalysis-2/maxwin/BulkDock/SCRATCH/511018/C6425-P114

>  <fragmenstein_runtime>  (1127) 
12.456949949264526

>  <fragmenstein_outcome>  (1127) 
too moved

>  <fragmenstein_mode>  (1127) 
expansion

>  <fragmenstein_error>  (1127) 


$$$$
C6425-P28
     RDKit          3D

 47 49  0  0  0  0  0  0  0  0999 V2000
   -0.6137  -21.5629   14.5389 C   0  0  0  0  0  0  0  0  0  0  0  0
   -0.5828  -20.7852   13.2241 C   0  0  0  0  0  0  0  0  0  0  0  0
   -0.2647  -21.6237   12.0493 N   0  0  0  0  0  0  0  0  0  0  0  0
    0.1377  -20.7354   10.8911 C   0  0  0  0  0  0  0  0  0  0  0  0
    1.2997  -19.6929   11.0700 C   0  0  0  0  0  0  0  0  0  0  0  0
    2.4373  -19.6779   11.8619 C   0  0  0  0  0  0  0  0  0  0  0  0
    3.1149  -18.5232   11.5505 N   0  0  0  0  0  0  0  0  0  0  0  0
    2.4033  -17.8718   10.5864 C   0  0  0  0  0  0  0  0  0  0  0  0
    1.3151  -18.5391   10.2717 N   0  0  0  0  0  0  0  0  0  0  0  0
   -1.3936  -22.6447   11.7550 C   0  0  0  0  0  0  0  0  0  0  0  0
   -0.8315  -24.0753   11.4664 C   0  0  0  0  0  0  0  0  0  0  0  0
   -1.7716  -25.2867   11.4860 C   0  0  0  0  0  0  0  0  0  0  0  0
   -1.6158  -26.2731   10.4980 C   0  0  0  0  0  0  0  0  0  0  0  0
   -2.4417  -27.3999   10.4684 C   0  0  0  0  0  0  0  0  0  0  0  0
   -3.4337  -27.5662   11.4315 C   0  0  0  0  0  0  0  0  0  0  0  0
   -3.5965  -26.6101   12.4301 C   0  0  0  0  0  0  0  0  0  0  0  0
   -2.7621  -25.4838   12.4636 C   0  0  0  0  0  0  0  0  0  0  0  0
   -2.4359  -22.2204   10.6934 C   0  0  0  0  0  0  0  0  0  0  0  0
   -3.3651  -21.1753   11.2684 C   0  0  0  0  0  0  0  0  0  0  0  0
   -4.6954  -21.5719   10.7173 C   0  0  0  0  0  0  0  0  0  0  0  0
   -4.6034  -23.0645   10.5614 C   0  0  0  0  0  0  0  0  0  0  0  0
   -3.2485  -23.3068   10.2164 O   0  0  0  0  0  0  0  0  0  0  0  0
   -1.4794  -22.2252   14.6207 H   0  0  0  0  0  0  0  0  0  0  0  0
    0.2951  -22.1614   14.6622 H   0  0  0  0  0  0  0  0  0  0  0  0
   -0.6661  -20.8628   15.3799 H   0  0  0  0  0  0  0  0  0  0  0  0
   -1.5141  -20.2364   13.0756 H   0  0  0  0  0  0  0  0  0  0  0  0
    0.1882  -20.0223   13.3683 H   0  0  0  0  0  0  0  0  0  0  0  0
    0.4428  -21.3834   10.0606 H   0  0  0  0  0  0  0  0  0  0  0  0
   -0.7266  -20.1458   10.5652 H   0  0  0  0  0  0  0  0  0  0  0  0
    2.7965  -20.3661   12.6125 H   0  0  0  0  0  0  0  0  0  0  0  0
    3.9191  -18.1554   12.0356 H   0  0  0  0  0  0  0  0  0  0  0  0
    2.7099  -16.9231   10.1720 H   0  0  0  0  0  0  0  0  0  0  0  0
   -1.9466  -22.7857   12.6873 H   0  0  0  0  0  0  0  0  0  0  0  0
   -0.0536  -24.2939   12.2113 H   0  0  0  0  0  0  0  0  0  0  0  0
   -0.3174  -24.0368   10.4965 H   0  0  0  0  0  0  0  0  0  0  0  0
   -0.8553  -26.1589    9.7289 H   0  0  0  0  0  0  0  0  0  0  0  0
   -2.3125  -28.1426    9.6862 H   0  0  0  0  0  0  0  0  0  0  0  0
   -4.0782  -28.4398   11.4031 H   0  0  0  0  0  0  0  0  0  0  0  0
   -4.3643  -26.7435   13.1849 H   0  0  0  0  0  0  0  0  0  0  0  0
   -2.8972  -24.7484   13.2517 H   0  0  0  0  0  0  0  0  0  0  0  0
   -1.9391  -21.8444    9.7936 H   0  0  0  0  0  0  0  0  0  0  0  0
   -3.3968  -21.1925   12.3575 H   0  0  0  0  0  0  0  0  0  0  0  0
   -3.0434  -20.1708   10.9876 H   0  0  0  0  0  0  0  0  0  0  0  0
   -5.5325  -21.2344   11.3320 H   0  0  0  0  0  0  0  0  0  0  0  0
   -4.7592  -21.1258    9.7269 H   0  0  0  0  0  0  0  0  0  0  0  0
   -5.2378  -23.4523    9.7612 H   0  0  0  0  0  0  0  0  0  0  0  0
   -4.8434  -23.6123   11.4725 H   0  0  0  0  0  0  0  0  0  0  0  0
  1  2  1  0
  2  3  1  0
  3  4  1  0
  4  5  1  0
  5  6  2  0
  6  7  1  0
  7  8  1  0
  8  9  2  0
  3 10  1  0
 10 11  1  0
 11 12  1  0
 12 13  2  0
 13 14  1  0
 14 15  2  0
 15 16  1  0
 16 17  2  0
 10 18  1  0
 18 19  1  0
 19 20  1  0
 20 21  1  0
 21 22  1  0
  9  5  1  0
 17 12  1  0
 22 18  1  0
  1 23  1  0
  1 24  1  0
  1 25  1  0
  2 26  1  0
  2 27  1  0
  4 28  1  0
  4 29  1  0
  6 30  1  0
  7 31  1  0
  8 32  1  0
 10 33  1  0
 11 34  1  0
 11 35  1  0
 13 36  1  0
 14 37  1  0
 15 38  1  0
 16 39  1  0
 17 40  1  0
 18 41  1  0
 19 42  1  0
 19 43  1  0
 20 44  1  0
 20 45  1  0
 21 46  1  0
 21 47  1  0
M  END
>  <Energy>  (1128) 
100.827959858029

>  <compound_id>  (1128) 
6425

>  <target_id>  (1128) 
1

>  <reference_id>  (1128) 
28

>  <inspiration_ids>  (1128) 
[114, 28]

>  <energy_score>  (1128) 
-28.797007491110094

>  <distance_score>  (1128) 
13.927015870217003

>  <path>  (1128) 
/opt/xchem-fragalysis-2/maxwin/BulkDock/SCRATCH/511018/C6425-P28/C6425-P28.minimised.mol

>  <scratch_subdir>  (1128) 
/opt/xchem-fragalysis-2/maxwin/BulkDock/SCRATCH/511018/C6425-P28

>  <fragmenstein_runtime>  (1128) 
13.937119007110596

>  <fragmenstein_outcome>  (1128) 
too moved

>  <fragmenstein_mode>  (1128) 
expansion

>  <fragmenstein_error>  (1128) 


$$$$
C6426-P114
     RDKit          3D

 50 51  0  0  0  0  0  0  0  0999 V2000
    4.9520   -6.6300   17.9509 C   0  0  0  0  0  0  0  0  0  0  0  0
    6.3028   -6.3604   17.2025 C   0  0  0  0  0  0  0  0  0  0  0  0
    6.8584   -6.1354   15.7715 N   0  0  0  0  0  0  0  0  0  0  0  0
    6.1564   -7.5183   14.3198 C   0  0  0  0  0  0  0  0  0  0  0  0
    4.8334   -9.0482   13.5287 C   0  0  0  0  0  0  0  0  0  0  0  0
    3.4884  -10.5311   13.9241 N   0  0  0  0  0  0  0  0  0  0  0  0
    1.9195  -11.2188   12.8916 C   0  0  0  0  0  0  0  0  0  0  0  0
    1.6293  -10.8197   11.7255 O   0  0  0  0  0  0  0  0  0  0  0  0
    0.4348  -12.6735   13.5559 C   0  0  0  0  0  0  0  0  0  0  0  0
   -1.0962  -13.9261   13.8299 O   0  0  0  0  0  0  0  0  0  0  0  0
   -2.6013  -14.9504   14.8045 C   0  0  0  0  0  0  0  0  0  0  0  0
   -4.1827  -16.1586   14.0393 C   0  0  0  0  0  0  0  0  0  0  0  0
   -4.9086  -14.9267   13.0342 N   0  0  0  0  0  0  0  0  0  0  0  0
   -6.2688  -14.9717   12.5205 C   0  0  0  0  0  0  0  0  0  0  0  0
   -6.9248  -15.8945   13.2160 C   0  0  0  0  0  0  0  0  0  0  0  0
   -5.8860  -16.7245   13.7570 N   0  0  0  0  0  0  0  0  0  0  0  0
   -6.4351  -18.0792   13.1501 C   0  0  0  0  0  0  0  0  0  0  0  0
    8.1249   -4.5484   15.6333 C   0  0  0  0  0  0  0  0  0  0  0  0
    7.4187   -3.4218   15.3515 O   0  0  0  0  0  0  0  0  0  0  0  0
   10.1086   -4.1023   15.5609 C   0  0  0  0  0  0  0  0  0  0  0  0
   10.3057   -2.5811   15.2538 C   0  0  0  0  0  0  0  0  0  0  0  0
   11.7816   -2.4877   14.9889 C   0  0  0  0  0  0  0  0  0  0  0  0
   12.2996   -3.3711   16.1021 C   0  0  0  0  0  0  0  0  0  0  0  0
   11.2491   -4.3032   16.4228 O   0  0  0  0  0  0  0  0  0  0  0  0
    4.0624   -6.5703   17.3093 H   0  0  0  0  0  0  0  0  0  0  0  0
    4.7976   -5.8410   18.7049 H   0  0  0  0  0  0  0  0  0  0  0  0
    4.9603   -7.5401   18.5510 H   0  0  0  0  0  0  0  0  0  0  0  0
    6.8926   -5.9965   18.0026 H   0  0  0  0  0  0  0  0  0  0  0  0
    5.6688   -5.5360   16.8930 H   0  0  0  0  0  0  0  0  0  0  0  0
    7.0759   -7.9724   13.8892 H   0  0  0  0  0  0  0  0  0  0  0  0
    5.5017   -6.9022   13.6990 H   0  0  0  0  0  0  0  0  0  0  0  0
    4.4918   -8.6154   12.5796 H   0  0  0  0  0  0  0  0  0  0  0  0
    5.6252   -9.7482   13.2149 H   0  0  0  0  0  0  0  0  0  0  0  0
    3.5763  -11.0463   14.7874 H   0  0  0  0  0  0  0  0  0  0  0  0
   -0.2534  -12.2024   12.8364 H   0  0  0  0  0  0  0  0  0  0  0  0
    0.7617  -13.5509   12.9765 H   0  0  0  0  0  0  0  0  0  0  0  0
   -2.1233  -15.8017   15.0704 H   0  0  0  0  0  0  0  0  0  0  0  0
   -2.7592  -14.5536   15.8379 H   0  0  0  0  0  0  0  0  0  0  0  0
   -6.6610  -14.2007   11.8742 H   0  0  0  0  0  0  0  0  0  0  0  0
   -7.9650  -16.1903   13.2498 H   0  0  0  0  0  0  0  0  0  0  0  0
   -5.6903  -18.8410   13.0668 H   0  0  0  0  0  0  0  0  0  0  0  0
   -6.8242  -17.8573   12.1485 H   0  0  0  0  0  0  0  0  0  0  0  0
   -7.3336  -18.3970   13.6785 H   0  0  0  0  0  0  0  0  0  0  0  0
   10.4256   -4.5497   14.6085 H   0  0  0  0  0  0  0  0  0  0  0  0
    9.6220   -2.2435   14.5052 H   0  0  0  0  0  0  0  0  0  0  0  0
   10.1031   -1.9220   16.0986 H   0  0  0  0  0  0  0  0  0  0  0  0
   12.1788   -1.4705   15.0332 H   0  0  0  0  0  0  0  0  0  0  0  0
   12.0234   -2.9106   14.0079 H   0  0  0  0  0  0  0  0  0  0  0  0
   13.2067   -3.9142   15.8299 H   0  0  0  0  0  0  0  0  0  0  0  0
   12.5151   -2.7903   17.0044 H   0  0  0  0  0  0  0  0  0  0  0  0
  1  2  1  0
  2  3  1  0
  3  4  1  0
  4  5  1  0
  5  6  1  0
  6  7  1  0
  7  8  2  0
  7  9  1  0
  9 10  1  0
 10 11  1  0
 11 12  1  0
 12 13  2  0
 13 14  1  0
 14 15  2  0
 15 16  1  0
 16 17  1  0
  3 18  1  0
 18 19  2  0
 18 20  1  0
 20 21  1  0
 21 22  1  0
 22 23  1  0
 23 24  1  0
 16 12  1  0
 24 20  1  0
  1 25  1  0
  1 26  1  0
  1 27  1  0
  2 28  1  0
  2 29  1  0
  4 30  1  0
  4 31  1  0
  5 32  1  0
  5 33  1  0
  6 34  1  0
  9 35  1  0
  9 36  1  0
 11 37  1  0
 11 38  1  0
 14 39  1  0
 15 40  1  0
 17 41  1  0
 17 42  1  0
 17 43  1  0
 20 44  1  0
 21 45  1  0
 21 46  1  0
 22 47  1  0
 22 48  1  0
 23 49  1  0
 23 50  1  0
M  END
>  <Energy>  (1129) 
1777.4325593879814

>  <compound_id>  (1129) 
6426

>  <target_id>  (1129) 
1

>  <reference_id>  (1129) 
114

>  <inspiration_ids>  (1129) 
[114, 28]

>  <energy_score>  (1129) 
1666.7256777795883

>  <distance_score>  (1129) 
9.889066652690902

>  <path>  (1129) 
/opt/xchem-fragalysis-2/maxwin/BulkDock/SCRATCH/511018/C6426-P114/C6426-P114.minimised.mol

>  <scratch_subdir>  (1129) 
/opt/xchem-fragalysis-2/maxwin/BulkDock/SCRATCH/511018/C6426-P114

>  <fragmenstein_runtime>  (1129) 
16.622987747192383

>  <fragmenstein_outcome>  (1129) 
too moved

>  <fragmenstein_mode>  (1129) 
expansion

>  <fragmenstein_error>  (1129) 


$$$$
C6426-P28
     RDKit          3D

 50 51  0  0  0  0  0  0  0  0999 V2000
    9.8446   -9.8026   15.5877 C   0  0  0  0  0  0  0  0  0  0  0  0
    8.3142   -9.6291   15.5312 C   0  0  0  0  0  0  0  0  0  0  0  0
    7.0617   -8.1232   15.0457 N   0  0  0  0  0  0  0  0  0  0  0  0
    5.3277   -9.2744   14.1988 C   0  0  0  0  0  0  0  0  0  0  0  0
    3.9379  -11.0137   15.0288 C   0  0  0  0  0  0  0  0  0  0  0  0
    2.6692  -12.9223   14.8179 N   0  0  0  0  0  0  0  0  0  0  0  0
    2.6513  -14.7965   15.9403 C   0  0  0  0  0  0  0  0  0  0  0  0
    3.3472  -14.8712   17.0350 O   0  0  0  0  0  0  0  0  0  0  0  0
    1.9653  -16.7958   15.4514 C   0  0  0  0  0  0  0  0  0  0  0  0
    0.7851  -18.2091   14.4186 O   0  0  0  0  0  0  0  0  0  0  0  0
   -1.1116  -19.0212   14.2205 C   0  0  0  0  0  0  0  0  0  0  0  0
   -2.4346  -20.6485   13.7156 C   0  0  0  0  0  0  0  0  0  0  0  0
   -2.7781  -22.2451   13.8680 N   0  0  0  0  0  0  0  0  0  0  0  0
   -3.2145  -23.3096   12.5709 C   0  0  0  0  0  0  0  0  0  0  0  0
   -3.7439  -22.3952   11.6808 C   0  0  0  0  0  0  0  0  0  0  0  0
   -3.6774  -20.8757   12.4251 N   0  0  0  0  0  0  0  0  0  0  0  0
   -5.0009  -20.3680   12.1329 C   0  0  0  0  0  0  0  0  0  0  0  0
    7.4788   -6.2931   15.3737 C   0  0  0  0  0  0  0  0  0  0  0  0
    7.0433   -5.9961   16.5353 O   0  0  0  0  0  0  0  0  0  0  0  0
    8.6864   -4.6490   14.6852 C   0  0  0  0  0  0  0  0  0  0  0  0
   10.4693   -4.1187   14.8404 C   0  0  0  0  0  0  0  0  0  0  0  0
   10.5547   -2.6254   15.1325 C   0  0  0  0  0  0  0  0  0  0  0  0
    9.1819   -2.0043   15.0864 C   0  0  0  0  0  0  0  0  0  0  0  0
    8.1733   -2.9269   14.6428 O   0  0  0  0  0  0  0  0  0  0  0  0
   10.1403  -10.3580   16.4845 H   0  0  0  0  0  0  0  0  0  0  0  0
   10.2032  -10.4372   14.7671 H   0  0  0  0  0  0  0  0  0  0  0  0
   10.3381   -8.8703   15.5611 H   0  0  0  0  0  0  0  0  0  0  0  0
    8.0750  -10.1457   16.4636 H   0  0  0  0  0  0  0  0  0  0  0  0
    8.1524  -10.2241   14.6160 H   0  0  0  0  0  0  0  0  0  0  0  0
    4.7370   -8.5125   13.6718 H   0  0  0  0  0  0  0  0  0  0  0  0
    5.8961   -9.8654   13.4603 H   0  0  0  0  0  0  0  0  0  0  0  0
    3.3310  -10.4165   14.3503 H   0  0  0  0  0  0  0  0  0  0  0  0
    3.7443  -10.8045   16.0868 H   0  0  0  0  0  0  0  0  0  0  0  0
    1.9965  -12.9909   14.0178 H   0  0  0  0  0  0  0  0  0  0  0  0
    2.9151  -17.1961   14.9748 H   0  0  0  0  0  0  0  0  0  0  0  0
    2.4123  -17.3532   16.3586 H   0  0  0  0  0  0  0  0  0  0  0  0
   -1.3324  -18.7442   15.2476 H   0  0  0  0  0  0  0  0  0  0  0  0
   -1.8202  -18.1944   14.1529 H   0  0  0  0  0  0  0  0  0  0  0  0
   -3.1274  -24.3714   12.7423 H   0  0  0  0  0  0  0  0  0  0  0  0
   -4.3341  -22.4076   10.7769 H   0  0  0  0  0  0  0  0  0  0  0  0
   -5.7824  -21.0640   12.4503 H   0  0  0  0  0  0  0  0  0  0  0  0
   -5.2011  -19.3941   12.5216 H   0  0  0  0  0  0  0  0  0  0  0  0
   -5.1388  -20.4812   11.0598 H   0  0  0  0  0  0  0  0  0  0  0  0
    8.4017   -4.1848   15.6915 H   0  0  0  0  0  0  0  0  0  0  0  0
   11.1017   -4.6959   15.5290 H   0  0  0  0  0  0  0  0  0  0  0  0
   10.9753   -4.2370   13.8795 H   0  0  0  0  0  0  0  0  0  0  0  0
   11.0352   -2.4419   16.0998 H   0  0  0  0  0  0  0  0  0  0  0  0
   11.2082   -2.1409   14.3967 H   0  0  0  0  0  0  0  0  0  0  0  0
    9.1488   -1.0780   14.5178 H   0  0  0  0  0  0  0  0  0  0  0  0
    8.8774   -1.5842   16.0453 H   0  0  0  0  0  0  0  0  0  0  0  0
  1  2  1  0
  2  3  1  0
  3  4  1  0
  4  5  1  0
  5  6  1  0
  6  7  1  0
  7  8  2  0
  7  9  1  0
  9 10  1  0
 10 11  1  0
 11 12  1  0
 12 13  2  0
 13 14  1  0
 14 15  2  0
 15 16  1  0
 16 17  1  0
  3 18  1  0
 18 19  2  0
 18 20  1  0
 20 21  1  0
 21 22  1  0
 22 23  1  0
 23 24  1  0
 16 12  1  0
 24 20  1  0
  1 25  1  0
  1 26  1  0
  1 27  1  0
  2 28  1  0
  2 29  1  0
  4 30  1  0
  4 31  1  0
  5 32  1  0
  5 33  1  0
  6 34  1  0
  9 35  1  0
  9 36  1  0
 11 37  1  0
 11 38  1  0
 14 39  1  0
 15 40  1  0
 17 41  1  0
 17 42  1  0
 17 43  1  0
 20 44  1  0
 21 45  1  0
 21 46  1  0
 22 47  1  0
 22 48  1  0
 23 49  1  0
 23 50  1  0
M  END
>  <Energy>  (1130) 
2533.7715876891825

>  <compound_id>  (1130) 
6426

>  <target_id>  (1130) 
1

>  <reference_id>  (1130) 
28

>  <inspiration_ids>  (1130) 
[114, 28]

>  <energy_score>  (1130) 
2423.0647060807587

>  <distance_score>  (1130) 
8.420944563767097

>  <path>  (1130) 
/opt/xchem-fragalysis-2/maxwin/BulkDock/SCRATCH/511018/C6426-P28/C6426-P28.minimised.mol

>  <scratch_subdir>  (1130) 
/opt/xchem-fragalysis-2/maxwin/BulkDock/SCRATCH/511018/C6426-P28

>  <fragmenstein_runtime>  (1130) 
18.247138738632202

>  <fragmenstein_outcome>  (1130) 
too moved

>  <fragmenstein_mode>  (1130) 
expansion

>  <fragmenstein_error>  (1130) 


$$$$
C6427-P114
     RDKit          3D

 46 47  0  0  0  0  0  0  0  0999 V2000
    8.2827   -4.3635   15.5645 C   0  0  0  0  0  0  0  0  0  0  0  0
    7.3797   -6.1924   15.6182 C   0  0  0  0  0  0  0  0  0  0  0  0
    6.1423   -6.8332   15.2775 N   0  0  0  0  0  0  0  0  0  0  0  0
    5.5434   -8.0345   13.8923 C   0  0  0  0  0  0  0  0  0  0  0  0
    5.1512   -9.9074   14.1652 C   0  0  0  0  0  0  0  0  0  0  0  0
    6.1195  -10.5470   13.9297 O   0  0  0  0  0  0  0  0  0  0  0  0
    3.7149  -10.5748   14.8526 N   0  0  0  0  0  0  0  0  0  0  0  0
    3.4127  -11.9990   15.4292 C   0  0  0  0  0  0  0  0  0  0  0  0
    4.7244  -12.4194   14.2807 C   0  0  0  0  0  0  0  0  0  0  0  0
    1.5361  -12.9510   15.9203 C   0  0  0  0  0  0  0  0  0  0  0  0
   -0.2685  -13.5347   17.0808 C   0  0  0  0  0  0  0  0  0  0  0  0
   -1.6262  -14.5104   15.8786 N   0  0  0  0  0  0  0  0  0  0  0  0
   -3.0890  -15.5838   16.2471 C   0  0  0  0  0  0  0  0  0  0  0  0
   -3.5663  -15.8110   17.3458 O   0  0  0  0  0  0  0  0  0  0  0  0
   -4.0204  -16.7863   14.8256 C   0  0  0  0  0  0  0  0  0  0  0  0
   -4.9728  -18.3639   13.6821 C   0  0  0  0  0  0  0  0  0  0  0  0
   -4.7375  -19.8694   12.5389 C   0  0  0  0  0  0  0  0  0  0  0  0
   -6.4527  -19.5836   11.6599 C   0  0  0  0  0  0  0  0  0  0  0  0
   -7.0059  -20.1163   12.6722 C   0  0  0  0  0  0  0  0  0  0  0  0
   -6.3437  -18.4072   13.2350 O   0  0  0  0  0  0  0  0  0  0  0  0
    6.8526   -7.9121   13.6181 C   0  0  0  0  0  0  0  0  0  0  0  0
    7.8539   -7.4122   14.9962 N   0  0  0  0  0  0  0  0  0  0  0  0
    7.5919   -3.5286   15.7573 H   0  0  0  0  0  0  0  0  0  0  0  0
    8.3181   -3.6849   14.6278 H   0  0  0  0  0  0  0  0  0  0  0  0
    9.3732   -4.2006   15.2765 H   0  0  0  0  0  0  0  0  0  0  0  0
    3.0076   -9.8665   14.8719 H   0  0  0  0  0  0  0  0  0  0  0  0
    3.7304  -11.7180   16.4489 H   0  0  0  0  0  0  0  0  0  0  0  0
    4.9221  -11.8823   13.3726 H   0  0  0  0  0  0  0  0  0  0  0  0
    5.2317  -11.7859   14.8145 H   0  0  0  0  0  0  0  0  0  0  0  0
    5.5061  -13.1556   14.1063 H   0  0  0  0  0  0  0  0  0  0  0  0
    1.3707  -12.7750   14.7957 H   0  0  0  0  0  0  0  0  0  0  0  0
    1.6089  -14.0483   16.2486 H   0  0  0  0  0  0  0  0  0  0  0  0
   -0.9231  -12.8308   17.6421 H   0  0  0  0  0  0  0  0  0  0  0  0
    0.3728  -13.9593   17.8673 H   0  0  0  0  0  0  0  0  0  0  0  0
   -1.5048  -14.4312   14.8711 H   0  0  0  0  0  0  0  0  0  0  0  0
   -3.0661  -17.1994   14.5454 H   0  0  0  0  0  0  0  0  0  0  0  0
   -4.0353  -17.3988   15.7586 H   0  0  0  0  0  0  0  0  0  0  0  0
   -5.2138  -18.9361   14.3799 H   0  0  0  0  0  0  0  0  0  0  0  0
   -3.9666  -19.9374   11.7763 H   0  0  0  0  0  0  0  0  0  0  0  0
   -4.5508  -20.7725   13.0298 H   0  0  0  0  0  0  0  0  0  0  0  0
   -7.1050  -19.8336   10.8654 H   0  0  0  0  0  0  0  0  0  0  0  0
   -6.7623  -18.5253   11.5518 H   0  0  0  0  0  0  0  0  0  0  0  0
   -6.7589  -21.0893   13.0999 H   0  0  0  0  0  0  0  0  0  0  0  0
   -8.0317  -20.0717   12.2090 H   0  0  0  0  0  0  0  0  0  0  0  0
    7.4026   -7.8144   12.6881 H   0  0  0  0  0  0  0  0  0  0  0  0
    8.8158   -7.6145   14.8382 H   0  0  0  0  0  0  0  0  0  0  0  0
  1  2  1  0
  2  3  2  0
  3  4  1  0
  4  5  1  0
  5  6  2  0
  5  7  1  0
  7  8  1  0
  8  9  1  0
  8 10  1  0
 10 11  1  0
 11 12  1  0
 12 13  1  0
 13 14  2  0
 13 15  1  0
 15 16  1  0
 16 17  1  0
 17 18  1  0
 18 19  1  0
 19 20  1  0
  4 21  2  0
 21 22  1  0
 22  2  1  0
 20 16  1  0
  1 23  1  0
  1 24  1  0
  1 25  1  0
  7 26  1  0
  8 27  1  0
  9 28  1  0
  9 29  1  0
  9 30  1  0
 10 31  1  0
 10 32  1  0
 11 33  1  0
 11 34  1  0
 12 35  1  0
 15 36  1  0
 15 37  1  0
 16 38  1  0
 17 39  1  0
 17 40  1  0
 18 41  1  0
 18 42  1  0
 19 43  1  0
 19 44  1  0
 21 45  1  0
 22 46  1  0
M  END
>  <Energy>  (1131) 
1720.2832420030954

>  <compound_id>  (1131) 
6427

>  <target_id>  (1131) 
1

>  <reference_id>  (1131) 
114

>  <inspiration_ids>  (1131) 
[114, 28]

>  <energy_score>  (1131) 
1684.0830995921347

>  <distance_score>  (1131) 
9.414492864517461

>  <path>  (1131) 
/opt/xchem-fragalysis-2/maxwin/BulkDock/SCRATCH/511018/C6427-P114/C6427-P114.minimised.mol

>  <scratch_subdir>  (1131) 
/opt/xchem-fragalysis-2/maxwin/BulkDock/SCRATCH/511018/C6427-P114

>  <fragmenstein_runtime>  (1131) 
19.266489505767822

>  <fragmenstein_outcome>  (1131) 
too moved

>  <fragmenstein_mode>  (1131) 
expansion

>  <fragmenstein_error>  (1131) 


$$$$
C6427-P28
     RDKit          3D

 46 47  0  0  0  0  0  0  0  0999 V2000
    8.4106   -4.0362   15.4919 C   0  0  0  0  0  0  0  0  0  0  0  0
    7.5282   -5.9099   15.5652 C   0  0  0  0  0  0  0  0  0  0  0  0
    6.2940   -6.5936   15.2878 N   0  0  0  0  0  0  0  0  0  0  0  0
    5.9824   -8.1248   14.2444 C   0  0  0  0  0  0  0  0  0  0  0  0
    5.1093  -10.0195   14.2116 C   0  0  0  0  0  0  0  0  0  0  0  0
    5.8499  -10.8863   13.8316 O   0  0  0  0  0  0  0  0  0  0  0  0
    3.4363  -10.4434   14.8443 N   0  0  0  0  0  0  0  0  0  0  0  0
    2.4126  -12.3370   15.2445 C   0  0  0  0  0  0  0  0  0  0  0  0
    3.2286  -11.5249   16.7879 C   0  0  0  0  0  0  0  0  0  0  0  0
    1.0473  -13.6214   16.3901 C   0  0  0  0  0  0  0  0  0  0  0  0
   -1.0494  -13.8660   16.8117 C   0  0  0  0  0  0  0  0  0  0  0  0
   -2.9045  -14.5655   16.3092 N   0  0  0  0  0  0  0  0  0  0  0  0
   -3.4111  -16.0745   15.2174 C   0  0  0  0  0  0  0  0  0  0  0  0
   -2.6219  -16.8485   14.7664 O   0  0  0  0  0  0  0  0  0  0  0  0
   -5.1232  -16.5004   14.5295 C   0  0  0  0  0  0  0  0  0  0  0  0
   -5.7561  -18.0026   13.4156 C   0  0  0  0  0  0  0  0  0  0  0  0
   -6.7088  -17.8073   12.3473 C   0  0  0  0  0  0  0  0  0  0  0  0
   -6.8802  -19.4805   11.7363 C   0  0  0  0  0  0  0  0  0  0  0  0
   -5.7127  -20.2588   12.1452 C   0  0  0  0  0  0  0  0  0  0  0  0
   -4.9438  -19.2063   12.8631 O   0  0  0  0  0  0  0  0  0  0  0  0
    7.4178   -8.0608   14.4738 C   0  0  0  0  0  0  0  0  0  0  0  0
    8.2044   -7.0998   15.1567 N   0  0  0  0  0  0  0  0  0  0  0  0
    7.9387   -3.2177   15.9805 H   0  0  0  0  0  0  0  0  0  0  0  0
    8.1976   -3.3067   14.6471 H   0  0  0  0  0  0  0  0  0  0  0  0
    9.5058   -3.9347   15.2621 H   0  0  0  0  0  0  0  0  0  0  0  0
    2.9487   -9.6018   15.0238 H   0  0  0  0  0  0  0  0  0  0  0  0
    1.6232  -12.1411   14.4448 H   0  0  0  0  0  0  0  0  0  0  0  0
    4.1747  -11.5632   16.3365 H   0  0  0  0  0  0  0  0  0  0  0  0
    3.0435  -10.4942   17.0868 H   0  0  0  0  0  0  0  0  0  0  0  0
    3.3411  -12.1780   17.6632 H   0  0  0  0  0  0  0  0  0  0  0  0
    1.4352  -13.9550   17.4004 H   0  0  0  0  0  0  0  0  0  0  0  0
    1.5062  -14.5230   16.0804 H   0  0  0  0  0  0  0  0  0  0  0  0
   -1.3683  -12.9763   17.3724 H   0  0  0  0  0  0  0  0  0  0  0  0
   -0.9074  -14.5170   17.6725 H   0  0  0  0  0  0  0  0  0  0  0  0
   -3.7177  -14.1074   16.6432 H   0  0  0  0  0  0  0  0  0  0  0  0
   -4.3074  -17.2234   14.5061 H   0  0  0  0  0  0  0  0  0  0  0  0
   -5.2110  -15.8646   13.5999 H   0  0  0  0  0  0  0  0  0  0  0  0
   -6.1810  -18.5808   14.1038 H   0  0  0  0  0  0  0  0  0  0  0  0
   -6.3579  -17.1196   11.5741 H   0  0  0  0  0  0  0  0  0  0  0  0
   -7.6301  -17.3489   12.7414 H   0  0  0  0  0  0  0  0  0  0  0  0
   -7.8219  -19.9563   12.0152 H   0  0  0  0  0  0  0  0  0  0  0  0
   -6.9142  -19.5435   10.6458 H   0  0  0  0  0  0  0  0  0  0  0  0
   -6.0813  -21.1306   12.6824 H   0  0  0  0  0  0  0  0  0  0  0  0
   -5.0869  -20.7014   11.3616 H   0  0  0  0  0  0  0  0  0  0  0  0
    7.9038   -9.0203   14.4741 H   0  0  0  0  0  0  0  0  0  0  0  0
    9.1894   -7.2120   15.3244 H   0  0  0  0  0  0  0  0  0  0  0  0
  1  2  1  0
  2  3  2  0
  3  4  1  0
  4  5  1  0
  5  6  2  0
  5  7  1  0
  7  8  1  0
  8  9  1  0
  8 10  1  0
 10 11  1  0
 11 12  1  0
 12 13  1  0
 13 14  2  0
 13 15  1  0
 15 16  1  0
 16 17  1  0
 17 18  1  0
 18 19  1  0
 19 20  1  0
  4 21  2  0
 21 22  1  0
 22  2  1  0
 20 16  1  0
  1 23  1  0
  1 24  1  0
  1 25  1  0
  7 26  1  0
  8 27  1  0
  9 28  1  0
  9 29  1  0
  9 30  1  0
 10 31  1  0
 10 32  1  0
 11 33  1  0
 11 34  1  0
 12 35  1  0
 15 36  1  0
 15 37  1  0
 16 38  1  0
 17 39  1  0
 17 40  1  0
 18 41  1  0
 18 42  1  0
 19 43  1  0
 19 44  1  0
 21 45  1  0
 22 46  1  0
M  END
>  <Energy>  (1132) 
1500.6438608889796

>  <compound_id>  (1132) 
6427

>  <target_id>  (1132) 
1

>  <reference_id>  (1132) 
28

>  <inspiration_ids>  (1132) 
[114, 28]

>  <energy_score>  (1132) 
1464.4437184780093

>  <distance_score>  (1132) 
9.202890206898822

>  <path>  (1132) 
/opt/xchem-fragalysis-2/maxwin/BulkDock/SCRATCH/511018/C6427-P28/C6427-P28.minimised.mol

>  <scratch_subdir>  (1132) 
/opt/xchem-fragalysis-2/maxwin/BulkDock/SCRATCH/511018/C6427-P28

>  <fragmenstein_runtime>  (1132) 
21.325298070907593

>  <fragmenstein_outcome>  (1132) 
too moved

>  <fragmenstein_mode>  (1132) 
expansion

>  <fragmenstein_error>  (1132) 


$$$$
C6428-P114
     RDKit          3D

 46 47  0  0  0  0  0  0  0  0999 V2000
    3.7300  -11.4678   15.1294 C   0  0  0  0  0  0  0  0  0  0  0  0
    2.5728  -11.0082   13.5867 C   0  0  0  0  0  0  0  0  0  0  0  0
    0.7958  -12.3126   13.5807 C   0  0  0  0  0  0  0  0  0  0  0  0
   -0.8532  -13.6540   13.8415 C   0  0  0  0  0  0  0  0  0  0  0  0
   -2.8791  -14.2734   13.8748 N   0  0  0  0  0  0  0  0  0  0  0  0
   -3.5985  -16.0488   14.3543 C   0  0  0  0  0  0  0  0  0  0  0  0
   -3.0448  -17.0264   14.7865 O   0  0  0  0  0  0  0  0  0  0  0  0
   -5.5247  -16.4642   13.9703 C   0  0  0  0  0  0  0  0  0  0  0  0
   -6.0417  -18.1680   13.4535 C   0  0  0  0  0  0  0  0  0  0  0  0
   -7.0161  -17.7893   12.4646 C   0  0  0  0  0  0  0  0  0  0  0  0
   -7.6378  -19.4477   11.8288 C   0  0  0  0  0  0  0  0  0  0  0  0
   -6.9099  -20.4066   12.5508 C   0  0  0  0  0  0  0  0  0  0  0  0
   -5.8049  -19.4755   12.5419 O   0  0  0  0  0  0  0  0  0  0  0  0
    4.3214  -10.1665   13.9588 N   0  0  0  0  0  0  0  0  0  0  0  0
    4.8519   -8.4896   13.8374 C   0  0  0  0  0  0  0  0  0  0  0  0
    4.1877   -7.6588   13.3915 O   0  0  0  0  0  0  0  0  0  0  0  0
    6.4384   -7.7178   14.5631 C   0  0  0  0  0  0  0  0  0  0  0  0
    7.4566   -6.8305   15.2191 C   0  0  0  0  0  0  0  0  0  0  0  0
    7.3740   -5.6273   15.9443 N   0  0  0  0  0  0  0  0  0  0  0  0
    8.3966   -4.1539   15.4515 C   0  0  0  0  0  0  0  0  0  0  0  0
    6.4900   -6.0375   16.8540 C   0  0  0  0  0  0  0  0  0  0  0  0
    5.9003   -6.8358   16.0651 N   0  0  0  0  0  0  0  0  0  0  0  0
    3.2427  -11.8749   15.9800 H   0  0  0  0  0  0  0  0  0  0  0  0
    3.8415  -10.7141   15.8754 H   0  0  0  0  0  0  0  0  0  0  0  0
    4.5288  -12.1320   14.8024 H   0  0  0  0  0  0  0  0  0  0  0  0
    2.7712  -10.8806   12.4557 H   0  0  0  0  0  0  0  0  0  0  0  0
    0.4726  -12.0866   12.5238 H   0  0  0  0  0  0  0  0  0  0  0  0
    1.2525  -13.2489   13.7004 H   0  0  0  0  0  0  0  0  0  0  0  0
   -0.4776  -14.2578   12.9895 H   0  0  0  0  0  0  0  0  0  0  0  0
   -1.0730  -12.6430   13.6070 H   0  0  0  0  0  0  0  0  0  0  0  0
   -3.5995  -13.6916   13.4522 H   0  0  0  0  0  0  0  0  0  0  0  0
   -5.8443  -15.8333   13.1077 H   0  0  0  0  0  0  0  0  0  0  0  0
   -6.0331  -16.3599   14.9179 H   0  0  0  0  0  0  0  0  0  0  0  0
   -5.0462  -18.4768   13.6407 H   0  0  0  0  0  0  0  0  0  0  0  0
   -6.6380  -17.1375   11.6708 H   0  0  0  0  0  0  0  0  0  0  0  0
   -7.8403  -17.2388   12.9609 H   0  0  0  0  0  0  0  0  0  0  0  0
   -8.7418  -19.6108   11.8638 H   0  0  0  0  0  0  0  0  0  0  0  0
   -7.4189  -19.4678   10.7950 H   0  0  0  0  0  0  0  0  0  0  0  0
   -7.5357  -21.2212   12.1091 H   0  0  0  0  0  0  0  0  0  0  0  0
   -7.0552  -21.0029   13.4449 H   0  0  0  0  0  0  0  0  0  0  0  0
    5.0965  -10.7327   14.2973 H   0  0  0  0  0  0  0  0  0  0  0  0
    8.4254   -6.8982   14.7683 H   0  0  0  0  0  0  0  0  0  0  0  0
    8.7660   -4.7174   14.6212 H   0  0  0  0  0  0  0  0  0  0  0  0
    7.7180   -3.2946   15.2519 H   0  0  0  0  0  0  0  0  0  0  0  0
    9.5265   -4.0026   15.4490 H   0  0  0  0  0  0  0  0  0  0  0  0
    6.1913   -5.7637   17.8583 H   0  0  0  0  0  0  0  0  0  0  0  0
  1  2  1  0
  2  3  1  0
  3  4  1  0
  4  5  1  0
  5  6  1  0
  6  7  2  0
  6  8  1  0
  8  9  1  0
  9 10  1  0
 10 11  1  0
 11 12  1  0
 12 13  1  0
  2 14  1  0
 14 15  1  0
 15 16  2  0
 15 17  1  0
 17 18  2  0
 18 19  1  0
 19 20  1  0
 19 21  1  0
 21 22  2  0
 13  9  1  0
 22 17  1  0
  1 23  1  0
  1 24  1  0
  1 25  1  0
  2 26  1  0
  3 27  1  0
  3 28  1  0
  4 29  1  0
  4 30  1  0
  5 31  1  0
  8 32  1  0
  8 33  1  0
  9 34  1  0
 10 35  1  0
 10 36  1  0
 11 37  1  0
 11 38  1  0
 12 39  1  0
 12 40  1  0
 14 41  1  0
 18 42  1  0
 20 43  1  0
 20 44  1  0
 20 45  1  0
 21 46  1  0
M  END
>  <Energy>  (1133) 
1593.6394809205619

>  <compound_id>  (1133) 
6428

>  <target_id>  (1133) 
1

>  <reference_id>  (1133) 
114

>  <inspiration_ids>  (1133) 
[114, 28]

>  <energy_score>  (1133) 
1548.8329894368158

>  <distance_score>  (1133) 
8.83635989109032

>  <path>  (1133) 
/opt/xchem-fragalysis-2/maxwin/BulkDock/SCRATCH/511018/C6428-P114/C6428-P114.minimised.mol

>  <scratch_subdir>  (1133) 
/opt/xchem-fragalysis-2/maxwin/BulkDock/SCRATCH/511018/C6428-P114

>  <fragmenstein_runtime>  (1133) 
26.43525767326355

>  <fragmenstein_outcome>  (1133) 
too moved

>  <fragmenstein_mode>  (1133) 
expansion

>  <fragmenstein_error>  (1133) 


$$$$
C6428-P28
     RDKit          3D

 46 47  0  0  0  0  0  0  0  0999 V2000
    3.4594  -12.7702   17.9503 C   0  0  0  0  0  0  0  0  0  0  0  0
    2.5617  -11.8623   16.5891 C   0  0  0  0  0  0  0  0  0  0  0  0
    0.9609  -13.4950   16.4487 C   0  0  0  0  0  0  0  0  0  0  0  0
   -1.1265  -14.0067   15.7348 C   0  0  0  0  0  0  0  0  0  0  0  0
   -2.8581  -15.1510   15.0667 N   0  0  0  0  0  0  0  0  0  0  0  0
   -3.9151  -15.1927   13.3448 C   0  0  0  0  0  0  0  0  0  0  0  0
   -3.6095  -14.5547   12.3773 O   0  0  0  0  0  0  0  0  0  0  0  0
   -5.6632  -16.2624   13.3219 C   0  0  0  0  0  0  0  0  0  0  0  0
   -6.1126  -18.1167   12.7925 C   0  0  0  0  0  0  0  0  0  0  0  0
   -6.8585  -19.4912   11.8932 C   0  0  0  0  0  0  0  0  0  0  0  0
   -6.1178  -20.7917   12.0852 C   0  0  0  0  0  0  0  0  0  0  0  0
   -4.7479  -20.3229   12.3556 C   0  0  0  0  0  0  0  0  0  0  0  0
   -4.9284  -18.9930   12.9897 O   0  0  0  0  0  0  0  0  0  0  0  0
    3.2171  -10.1785   17.4484 N   0  0  0  0  0  0  0  0  0  0  0  0
    2.4957   -8.6739   17.7053 C   0  0  0  0  0  0  0  0  0  0  0  0
    1.3492   -8.3009   17.4874 O   0  0  0  0  0  0  0  0  0  0  0  0
    3.7896   -7.4181   18.3041 C   0  0  0  0  0  0  0  0  0  0  0  0
    5.1501   -7.5932   18.6113 C   0  0  0  0  0  0  0  0  0  0  0  0
    5.9350   -6.6354   19.3120 N   0  0  0  0  0  0  0  0  0  0  0  0
    6.8333   -6.8290   20.4412 C   0  0  0  0  0  0  0  0  0  0  0  0
    5.2224   -5.5165   19.3166 C   0  0  0  0  0  0  0  0  0  0  0  0
    4.0418   -5.9115   18.9843 N   0  0  0  0  0  0  0  0  0  0  0  0
    3.5189  -13.8744   17.8723 H   0  0  0  0  0  0  0  0  0  0  0  0
    4.1760  -12.1048   17.5955 H   0  0  0  0  0  0  0  0  0  0  0  0
    3.9483  -12.6524   18.9234 H   0  0  0  0  0  0  0  0  0  0  0  0
    3.4104  -11.6788   15.8186 H   0  0  0  0  0  0  0  0  0  0  0  0
    0.7181  -13.7809   17.4943 H   0  0  0  0  0  0  0  0  0  0  0  0
    1.6056  -14.3505   16.2900 H   0  0  0  0  0  0  0  0  0  0  0  0
   -1.7711  -13.4027   16.4475 H   0  0  0  0  0  0  0  0  0  0  0  0
   -1.0294  -14.3760   16.8194 H   0  0  0  0  0  0  0  0  0  0  0  0
   -3.3448  -15.7047   15.7867 H   0  0  0  0  0  0  0  0  0  0  0  0
   -5.7591  -16.4847   14.3601 H   0  0  0  0  0  0  0  0  0  0  0  0
   -6.4618  -15.6351   12.9043 H   0  0  0  0  0  0  0  0  0  0  0  0
   -6.2675  -17.5808   11.8398 H   0  0  0  0  0  0  0  0  0  0  0  0
   -7.9224  -19.6843   12.0448 H   0  0  0  0  0  0  0  0  0  0  0  0
   -6.7661  -19.3925   10.8111 H   0  0  0  0  0  0  0  0  0  0  0  0
   -5.9883  -21.4166   11.2281 H   0  0  0  0  0  0  0  0  0  0  0  0
   -6.6347  -21.3999   12.8262 H   0  0  0  0  0  0  0  0  0  0  0  0
   -4.1362  -20.3263   11.4476 H   0  0  0  0  0  0  0  0  0  0  0  0
   -4.0696  -20.9096   12.9528 H   0  0  0  0  0  0  0  0  0  0  0  0
    4.1065  -10.1702   17.8004 H   0  0  0  0  0  0  0  0  0  0  0  0
    5.1820   -8.6324   18.8781 H   0  0  0  0  0  0  0  0  0  0  0  0
    7.4854   -5.9610   20.5405 H   0  0  0  0  0  0  0  0  0  0  0  0
    6.2326   -6.8589   21.3565 H   0  0  0  0  0  0  0  0  0  0  0  0
    7.4479   -7.7208   20.3530 H   0  0  0  0  0  0  0  0  0  0  0  0
    5.4927   -4.5750   19.7702 H   0  0  0  0  0  0  0  0  0  0  0  0
  1  2  1  0
  2  3  1  0
  3  4  1  0
  4  5  1  0
  5  6  1  0
  6  7  2  0
  6  8  1  0
  8  9  1  0
  9 10  1  0
 10 11  1  0
 11 12  1  0
 12 13  1  0
  2 14  1  0
 14 15  1  0
 15 16  2  0
 15 17  1  0
 17 18  2  0
 18 19  1  0
 19 20  1  0
 19 21  1  0
 21 22  2  0
 13  9  1  0
 22 17  1  0
  1 23  1  0
  1 24  1  0
  1 25  1  0
  2 26  1  0
  3 27  1  0
  3 28  1  0
  4 29  1  0
  4 30  1  0
  5 31  1  0
  8 32  1  0
  8 33  1  0
  9 34  1  0
 10 35  1  0
 10 36  1  0
 11 37  1  0
 11 38  1  0
 12 39  1  0
 12 40  1  0
 14 41  1  0
 18 42  1  0
 20 43  1  0
 20 44  1  0
 20 45  1  0
 21 46  1  0
M  END
>  <Energy>  (1134) 
1375.0209276989879

>  <compound_id>  (1134) 
6428

>  <target_id>  (1134) 
1

>  <reference_id>  (1134) 
28

>  <inspiration_ids>  (1134) 
[114, 28]

>  <energy_score>  (1134) 
1330.2144362152208

>  <distance_score>  (1134) 
9.67038113106027

>  <path>  (1134) 
/opt/xchem-fragalysis-2/maxwin/BulkDock/SCRATCH/511018/C6428-P28/C6428-P28.minimised.mol

>  <scratch_subdir>  (1134) 
/opt/xchem-fragalysis-2/maxwin/BulkDock/SCRATCH/511018/C6428-P28

>  <fragmenstein_runtime>  (1134) 
66.80420732498169

>  <fragmenstein_outcome>  (1134) 
too moved

>  <fragmenstein_mode>  (1134) 
expansion

>  <fragmenstein_error>  (1134) 


$$$$
C6429-P114
     RDKit          3D

 41 43  0  0  0  0  0  0  0  0999 V2000
   -5.8255  -15.9059   11.5093 C   0  0  0  0  0  0  0  0  0  0  0  0
   -4.9214  -15.6508   12.7312 C   0  0  0  0  0  0  0  0  0  0  0  0
   -3.7208  -14.7096   12.7777 N   0  0  0  0  0  0  0  0  0  0  0  0
   -5.2794  -13.7405   12.9751 C   0  0  0  0  0  0  0  0  0  0  0  0
   -6.3885  -14.1107   14.2157 C   0  0  0  0  0  0  0  0  0  0  0  0
   -7.5811  -15.0519   13.9453 C   0  0  0  0  0  0  0  0  0  0  0  0
   -8.6102  -14.1489   13.3335 C   0  0  0  0  0  0  0  0  0  0  0  0
   -8.4412  -12.9279   14.1955 C   0  0  0  0  0  0  0  0  0  0  0  0
   -7.0583  -12.8702   14.5750 O   0  0  0  0  0  0  0  0  0  0  0  0
   -2.2867  -14.5190   11.5074 C   0  0  0  0  0  0  0  0  0  0  0  0
   -2.2087  -15.0779   10.4252 O   0  0  0  0  0  0  0  0  0  0  0  0
   -0.5355  -13.4334   11.8788 C   0  0  0  0  0  0  0  0  0  0  0  0
   -0.3850  -12.1588   11.3247 C   0  0  0  0  0  0  0  0  0  0  0  0
    0.5119  -10.9656   11.0177 N   0  0  0  0  0  0  0  0  0  0  0  0
    1.7263  -10.8913   11.3589 C   0  0  0  0  0  0  0  0  0  0  0  0
    1.6126  -11.2894   12.5970 C   0  0  0  0  0  0  0  0  0  0  0  0
    3.2436  -10.7970   13.4922 N   0  0  0  0  0  0  0  0  0  0  0  0
    3.8881  -10.9785   14.7376 C   0  0  0  0  0  0  0  0  0  0  0  0
    5.0114  -10.4132   14.2769 C   0  0  0  0  0  0  0  0  0  0  0  0
    5.6164  -11.3319   13.7037 N   0  0  0  0  0  0  0  0  0  0  0  0
    4.7373  -11.0027   12.8864 C   0  0  0  0  0  0  0  0  0  0  0  0
    0.4024  -12.6443   12.9105 N   0  0  0  0  0  0  0  0  0  0  0  0
   -6.3670  -16.8326   11.6917 H   0  0  0  0  0  0  0  0  0  0  0  0
   -6.6091  -15.1727   11.3274 H   0  0  0  0  0  0  0  0  0  0  0  0
   -5.2496  -15.9723   10.5834 H   0  0  0  0  0  0  0  0  0  0  0  0
   -4.4602  -16.6209   12.7830 H   0  0  0  0  0  0  0  0  0  0  0  0
   -5.3229  -15.8480   13.7266 H   0  0  0  0  0  0  0  0  0  0  0  0
   -6.0364  -13.5801   12.1920 H   0  0  0  0  0  0  0  0  0  0  0  0
   -4.9326  -12.7254   13.1527 H   0  0  0  0  0  0  0  0  0  0  0  0
   -5.8594  -14.4814   15.1022 H   0  0  0  0  0  0  0  0  0  0  0  0
   -7.9503  -15.3803   14.9241 H   0  0  0  0  0  0  0  0  0  0  0  0
   -7.4143  -15.9608   13.3779 H   0  0  0  0  0  0  0  0  0  0  0  0
   -8.3541  -13.9070   12.2981 H   0  0  0  0  0  0  0  0  0  0  0  0
   -9.6269  -14.5464   13.3501 H   0  0  0  0  0  0  0  0  0  0  0  0
   -8.7163  -12.0056   13.6760 H   0  0  0  0  0  0  0  0  0  0  0  0
   -9.0354  -12.9987   15.1128 H   0  0  0  0  0  0  0  0  0  0  0  0
   -1.0912  -11.4414   11.7606 H   0  0  0  0  0  0  0  0  0  0  0  0
    2.4743  -10.3330   10.8515 H   0  0  0  0  0  0  0  0  0  0  0  0
    3.7269  -11.6985   15.5153 H   0  0  0  0  0  0  0  0  0  0  0  0
    5.0411   -9.3409   14.0084 H   0  0  0  0  0  0  0  0  0  0  0  0
    4.6333  -11.2461   11.8356 H   0  0  0  0  0  0  0  0  0  0  0  0
  1  2  1  0
  2  3  1  0
  3  4  1  0
  4  5  1  0
  5  6  1  0
  6  7  1  0
  7  8  1  0
  8  9  1  0
  3 10  1  0
 10 11  2  0
 10 12  1  0
 12 13  2  0
 13 14  1  0
 14 15  2  0
 15 16  1  0
 16 17  1  0
 17 18  1  0
 18 19  2  0
 19 20  1  0
 20 21  2  0
 16 22  2  0
  9  5  1  0
 22 12  1  0
 21 17  1  0
  1 23  1  0
  1 24  1  0
  1 25  1  0
  2 26  1  0
  2 27  1  0
  4 28  1  0
  4 29  1  0
  5 30  1  0
  6 31  1  0
  6 32  1  0
  7 33  1  0
  7 34  1  0
  8 35  1  0
  8 36  1  0
 13 37  1  0
 15 38  1  0
 18 39  1  0
 19 40  1  0
 21 41  1  0
M  END
>  <Energy>  (1135) 
1007.1744621566517

>  <compound_id>  (1135) 
6429

>  <target_id>  (1135) 
1

>  <reference_id>  (1135) 
114

>  <inspiration_ids>  (1135) 
[114, 28]

>  <energy_score>  (1135) 
837.9414104466371

>  <distance_score>  (1135) 
12.059926649318923

>  <path>  (1135) 
/opt/xchem-fragalysis-2/maxwin/BulkDock/SCRATCH/511018/C6429-P114/C6429-P114.minimised.mol

>  <scratch_subdir>  (1135) 
/opt/xchem-fragalysis-2/maxwin/BulkDock/SCRATCH/511018/C6429-P114

>  <fragmenstein_runtime>  (1135) 
17.836172819137573

>  <fragmenstein_outcome>  (1135) 
too moved

>  <fragmenstein_mode>  (1135) 
expansion

>  <fragmenstein_error>  (1135) 


$$$$
C6429-P28
     RDKit          3D

 41 43  0  0  0  0  0  0  0  0999 V2000
   -4.8367  -16.8239   13.8169 C   0  0  0  0  0  0  0  0  0  0  0  0
   -3.7705  -17.6459   15.0618 C   0  0  0  0  0  0  0  0  0  0  0  0
   -2.7949  -17.0654   15.3481 N   0  0  0  0  0  0  0  0  0  0  0  0
   -3.4727  -18.3223   16.8903 C   0  0  0  0  0  0  0  0  0  0  0  0
   -4.8618  -19.9818   17.4085 C   0  0  0  0  0  0  0  0  0  0  0  0
   -6.7804  -21.0926   17.4071 C   0  0  0  0  0  0  0  0  0  0  0  0
   -7.7219  -22.2198   15.8914 C   0  0  0  0  0  0  0  0  0  0  0  0
   -6.3672  -22.8398   17.2790 C   0  0  0  0  0  0  0  0  0  0  0  0
   -4.8073  -21.7437   16.8925 O   0  0  0  0  0  0  0  0  0  0  0  0
   -2.4026  -15.3502   15.3239 C   0  0  0  0  0  0  0  0  0  0  0  0
   -3.3570  -14.7258   15.0589 O   0  0  0  0  0  0  0  0  0  0  0  0
   -0.8998  -14.1983   15.3293 C   0  0  0  0  0  0  0  0  0  0  0  0
   -0.9116  -13.6301   13.6941 C   0  0  0  0  0  0  0  0  0  0  0  0
   -0.3211  -13.0574   12.2443 N   0  0  0  0  0  0  0  0  0  0  0  0
    0.5246  -12.0602   12.4115 C   0  0  0  0  0  0  0  0  0  0  0  0
    1.2224  -12.1760   13.6099 C   0  0  0  0  0  0  0  0  0  0  0  0
    2.6307  -10.7672   13.6940 N   0  0  0  0  0  0  0  0  0  0  0  0
    4.4363  -11.1294   14.2367 C   0  0  0  0  0  0  0  0  0  0  0  0
    5.2517  -10.2060   13.9097 C   0  0  0  0  0  0  0  0  0  0  0  0
    4.3625   -9.3164   13.8339 N   0  0  0  0  0  0  0  0  0  0  0  0
    3.5079  -10.0711   14.5529 C   0  0  0  0  0  0  0  0  0  0  0  0
    0.5604  -13.7898   14.1063 N   0  0  0  0  0  0  0  0  0  0  0  0
   -4.3154  -16.1506   13.1520 H   0  0  0  0  0  0  0  0  0  0  0  0
   -5.3629  -17.5967   13.2466 H   0  0  0  0  0  0  0  0  0  0  0  0
   -5.5668  -16.1724   14.3170 H   0  0  0  0  0  0  0  0  0  0  0  0
   -3.2260  -17.7665   14.1635 H   0  0  0  0  0  0  0  0  0  0  0  0
   -4.1974  -16.7934   15.6735 H   0  0  0  0  0  0  0  0  0  0  0  0
   -2.5026  -18.7636   17.1671 H   0  0  0  0  0  0  0  0  0  0  0  0
   -3.7454  -17.5677   17.6455 H   0  0  0  0  0  0  0  0  0  0  0  0
   -4.5609  -19.9621   18.4735 H   0  0  0  0  0  0  0  0  0  0  0  0
   -7.8097  -20.5971   17.4764 H   0  0  0  0  0  0  0  0  0  0  0  0
   -7.0563  -20.4446   18.2670 H   0  0  0  0  0  0  0  0  0  0  0  0
   -8.8752  -22.3341   15.9374 H   0  0  0  0  0  0  0  0  0  0  0  0
   -7.5495  -22.1009   14.7874 H   0  0  0  0  0  0  0  0  0  0  0  0
   -6.8340  -23.5378   16.5000 H   0  0  0  0  0  0  0  0  0  0  0  0
   -6.4891  -23.7665   17.9344 H   0  0  0  0  0  0  0  0  0  0  0  0
   -1.0405  -12.5384   13.8182 H   0  0  0  0  0  0  0  0  0  0  0  0
    0.6733  -11.3274   11.6420 H   0  0  0  0  0  0  0  0  0  0  0  0
    4.6885  -12.1150   14.5245 H   0  0  0  0  0  0  0  0  0  0  0  0
    6.2903  -10.2916   13.8740 H   0  0  0  0  0  0  0  0  0  0  0  0
    3.5662  -10.3944   15.6988 H   0  0  0  0  0  0  0  0  0  0  0  0
  1  2  1  0
  2  3  1  0
  3  4  1  0
  4  5  1  0
  5  6  1  0
  6  7  1  0
  7  8  1  0
  8  9  1  0
  3 10  1  0
 10 11  2  0
 10 12  1  0
 12 13  2  0
 13 14  1  0
 14 15  2  0
 15 16  1  0
 16 17  1  0
 17 18  1  0
 18 19  2  0
 19 20  1  0
 20 21  2  0
 16 22  2  0
  9  5  1  0
 22 12  1  0
 21 17  1  0
  1 23  1  0
  1 24  1  0
  1 25  1  0
  2 26  1  0
  2 27  1  0
  4 28  1  0
  4 29  1  0
  5 30  1  0
  6 31  1  0
  6 32  1  0
  7 33  1  0
  7 34  1  0
  8 35  1  0
  8 36  1  0
 13 37  1  0
 15 38  1  0
 18 39  1  0
 19 40  1  0
 21 41  1  0
M  END
>  <Energy>  (1136) 
2420.0028381460725

>  <compound_id>  (1136) 
6429

>  <target_id>  (1136) 
1

>  <reference_id>  (1136) 
28

>  <inspiration_ids>  (1136) 
[114, 28]

>  <energy_score>  (1136) 
2250.769786436074

>  <distance_score>  (1136) 
10.62112173291528

>  <path>  (1136) 
/opt/xchem-fragalysis-2/maxwin/BulkDock/SCRATCH/511018/C6429-P28/C6429-P28.minimised.mol

>  <scratch_subdir>  (1136) 
/opt/xchem-fragalysis-2/maxwin/BulkDock/SCRATCH/511018/C6429-P28

>  <fragmenstein_runtime>  (1136) 
24.881694793701172

>  <fragmenstein_outcome>  (1136) 
too moved

>  <fragmenstein_mode>  (1136) 
expansion

>  <fragmenstein_error>  (1136) 


$$$$
C6430-P114
     RDKit          3D

 43 45  0  0  0  0  0  0  0  0999 V2000
    2.3239  -10.5391   10.7294 O   0  0  0  0  0  0  0  0  0  0  0  0
    2.1584  -11.2300   11.7455 C   0  0  0  0  0  0  0  0  0  0  0  0
    0.8849  -12.5530   11.4141 O   0  0  0  0  0  0  0  0  0  0  0  0
   -0.0945  -14.2621   11.4712 C   0  0  0  0  0  0  0  0  0  0  0  0
   -0.8416  -15.9185   10.4562 C   0  0  0  0  0  0  0  0  0  0  0  0
   -2.3607  -17.0606    9.5285 C   0  0  0  0  0  0  0  0  0  0  0  0
   -3.4496  -18.8132   10.0354 C   0  0  0  0  0  0  0  0  0  0  0  0
   -4.3654  -19.6945   11.7870 C   0  0  0  0  0  0  0  0  0  0  0  0
   -6.0420  -18.8631   12.4192 C   0  0  0  0  0  0  0  0  0  0  0  0
   -7.1667  -19.7254   11.9619 C   0  0  0  0  0  0  0  0  0  0  0  0
   -6.7351  -20.9174   12.6843 C   0  0  0  0  0  0  0  0  0  0  0  0
   -4.9741  -20.9202   12.2992 O   0  0  0  0  0  0  0  0  0  0  0  0
    3.4805  -10.6727   13.1933 C   0  0  0  0  0  0  0  0  0  0  0  0
    3.3491  -10.3605   14.4153 C   0  0  0  0  0  0  0  0  0  0  0  0
    2.9467   -8.7185   14.8735 N   0  0  0  0  0  0  0  0  0  0  0  0
    3.8213   -7.8258   14.2897 C   0  0  0  0  0  0  0  0  0  0  0  0
    4.7760   -8.4620   13.6987 C   0  0  0  0  0  0  0  0  0  0  0  0
    6.0915   -7.8277   14.0479 N   0  0  0  0  0  0  0  0  0  0  0  0
    7.1811   -7.7889   13.2761 C   0  0  0  0  0  0  0  0  0  0  0  0
    8.2619   -7.1809   14.4378 C   0  0  0  0  0  0  0  0  0  0  0  0
    7.6274   -6.5471   15.4668 N   0  0  0  0  0  0  0  0  0  0  0  0
    6.4331   -6.9476   15.3889 C   0  0  0  0  0  0  0  0  0  0  0  0
    4.6007  -10.0457   13.4197 N   0  0  0  0  0  0  0  0  0  0  0  0
    0.7516  -14.8080   11.8603 H   0  0  0  0  0  0  0  0  0  0  0  0
   -0.5567  -14.1103   12.4243 H   0  0  0  0  0  0  0  0  0  0  0  0
    0.0182  -16.1686    9.8057 H   0  0  0  0  0  0  0  0  0  0  0  0
   -0.4872  -16.6381   11.2140 H   0  0  0  0  0  0  0  0  0  0  0  0
   -3.0804  -16.2922    9.2662 H   0  0  0  0  0  0  0  0  0  0  0  0
   -1.8980  -17.3296    8.5628 H   0  0  0  0  0  0  0  0  0  0  0  0
   -4.1778  -18.7204    9.1712 H   0  0  0  0  0  0  0  0  0  0  0  0
   -3.0782  -19.6908    9.4540 H   0  0  0  0  0  0  0  0  0  0  0  0
   -3.9154  -19.4541   12.6824 H   0  0  0  0  0  0  0  0  0  0  0  0
   -6.3715  -17.8419   12.1577 H   0  0  0  0  0  0  0  0  0  0  0  0
   -5.9089  -18.6285   13.4630 H   0  0  0  0  0  0  0  0  0  0  0  0
   -8.2495  -19.6307   12.0334 H   0  0  0  0  0  0  0  0  0  0  0  0
   -7.1976  -19.6243   10.9189 H   0  0  0  0  0  0  0  0  0  0  0  0
   -7.3575  -21.8234   12.4268 H   0  0  0  0  0  0  0  0  0  0  0  0
   -7.0016  -21.1939   13.6759 H   0  0  0  0  0  0  0  0  0  0  0  0
    3.8154  -10.9517   15.2381 H   0  0  0  0  0  0  0  0  0  0  0  0
    3.7484   -6.8272   14.7645 H   0  0  0  0  0  0  0  0  0  0  0  0
    7.3968   -8.0066   12.2531 H   0  0  0  0  0  0  0  0  0  0  0  0
    9.2835   -7.5261   14.7371 H   0  0  0  0  0  0  0  0  0  0  0  0
    5.7371   -6.6288   16.1834 H   0  0  0  0  0  0  0  0  0  0  0  0
  1  2  2  0
  2  3  1  0
  3  4  1  0
  4  5  1  0
  5  6  1  0
  6  7  1  0
  7  8  1  0
  8  9  1  0
  9 10  1  0
 10 11  1  0
 11 12  1  0
  2 13  1  0
 13 14  2  0
 14 15  1  0
 15 16  2  0
 16 17  1  0
 17 18  1  0
 18 19  1  0
 19 20  2  0
 20 21  1  0
 21 22  2  0
 17 23  2  0
 12  8  1  0
 23 13  1  0
 22 18  1  0
  4 24  1  0
  4 25  1  0
  5 26  1  0
  5 27  1  0
  6 28  1  0
  6 29  1  0
  7 30  1  0
  7 31  1  0
  8 32  1  0
  9 33  1  0
  9 34  1  0
 10 35  1  0
 10 36  1  0
 11 37  1  0
 11 38  1  0
 14 39  1  0
 16 40  1  0
 19 41  1  0
 20 42  1  0
 22 43  1  0
M  END
>  <Energy>  (1137) 
1356.8755554479139

>  <compound_id>  (1137) 
6430

>  <target_id>  (1137) 
1

>  <reference_id>  (1137) 
114

>  <inspiration_ids>  (1137) 
[114, 28]

>  <energy_score>  (1137) 
1190.9187450723045

>  <distance_score>  (1137) 
8.18943255655421

>  <path>  (1137) 
/opt/xchem-fragalysis-2/maxwin/BulkDock/SCRATCH/511018/C6430-P114/C6430-P114.minimised.mol

>  <scratch_subdir>  (1137) 
/opt/xchem-fragalysis-2/maxwin/BulkDock/SCRATCH/511018/C6430-P114

>  <fragmenstein_runtime>  (1137) 
23.06576657295227

>  <fragmenstein_outcome>  (1137) 
too moved

>  <fragmenstein_mode>  (1137) 
expansion

>  <fragmenstein_error>  (1137) 


$$$$
C6430-P28
     RDKit          3D

 43 45  0  0  0  0  0  0  0  0999 V2000
    3.9417  -15.4909    9.6744 O   0  0  0  0  0  0  0  0  0  0  0  0
    3.0294  -14.6478    9.5101 C   0  0  0  0  0  0  0  0  0  0  0  0
    1.5435  -15.4976    9.0217 O   0  0  0  0  0  0  0  0  0  0  0  0
    0.3506  -16.9564    9.3695 C   0  0  0  0  0  0  0  0  0  0  0  0
   -1.6072  -17.3439    8.9572 C   0  0  0  0  0  0  0  0  0  0  0  0
   -3.0148  -18.7895    9.3763 C   0  0  0  0  0  0  0  0  0  0  0  0
   -3.7708  -19.9046   10.9833 C   0  0  0  0  0  0  0  0  0  0  0  0
   -5.0932  -20.8571   10.6722 C   0  0  0  0  0  0  0  0  0  0  0  0
   -6.3055  -20.5415   11.5459 C   0  0  0  0  0  0  0  0  0  0  0  0
   -6.6980  -21.8580   12.1894 C   0  0  0  0  0  0  0  0  0  0  0  0
   -5.8189  -22.9564   11.5180 C   0  0  0  0  0  0  0  0  0  0  0  0
   -5.1492  -22.2850   10.4447 O   0  0  0  0  0  0  0  0  0  0  0  0
    3.7347  -12.7171    9.9944 C   0  0  0  0  0  0  0  0  0  0  0  0
    3.1063  -11.4653   10.3103 C   0  0  0  0  0  0  0  0  0  0  0  0
    3.1549  -10.2819   11.5977 N   0  0  0  0  0  0  0  0  0  0  0  0
    4.0871  -10.1215   13.1021 C   0  0  0  0  0  0  0  0  0  0  0  0
    5.2254  -10.9881   12.8769 C   0  0  0  0  0  0  0  0  0  0  0  0
    6.3368  -10.0825   13.9377 N   0  0  0  0  0  0  0  0  0  0  0  0
    7.9215  -10.2422   14.3942 C   0  0  0  0  0  0  0  0  0  0  0  0
    8.2427   -9.6535   15.4675 C   0  0  0  0  0  0  0  0  0  0  0  0
    7.3454   -7.9630   15.0958 N   0  0  0  0  0  0  0  0  0  0  0  0
    6.4122   -8.2011   14.1788 C   0  0  0  0  0  0  0  0  0  0  0  0
    4.6821  -12.2548   11.4234 N   0  0  0  0  0  0  0  0  0  0  0  0
    0.9241  -17.7413    8.8695 H   0  0  0  0  0  0  0  0  0  0  0  0
    0.4485  -16.9638   10.4585 H   0  0  0  0  0  0  0  0  0  0  0  0
   -2.1821  -16.4475    9.1789 H   0  0  0  0  0  0  0  0  0  0  0  0
   -1.5417  -17.5065    7.8796 H   0  0  0  0  0  0  0  0  0  0  0  0
   -3.8442  -18.4378    8.7343 H   0  0  0  0  0  0  0  0  0  0  0  0
   -2.6446  -19.5277    8.6275 H   0  0  0  0  0  0  0  0  0  0  0  0
   -3.2939  -20.4424   11.7944 H   0  0  0  0  0  0  0  0  0  0  0  0
   -4.1302  -19.3373   11.8537 H   0  0  0  0  0  0  0  0  0  0  0  0
   -5.0360  -20.5365    9.6466 H   0  0  0  0  0  0  0  0  0  0  0  0
   -6.1271  -19.7411   12.2558 H   0  0  0  0  0  0  0  0  0  0  0  0
   -7.1425  -20.1817   10.9433 H   0  0  0  0  0  0  0  0  0  0  0  0
   -7.7741  -22.0232   12.0866 H   0  0  0  0  0  0  0  0  0  0  0  0
   -6.7286  -21.7954   13.2535 H   0  0  0  0  0  0  0  0  0  0  0  0
   -6.4048  -23.8018   11.1412 H   0  0  0  0  0  0  0  0  0  0  0  0
   -5.0466  -23.5459   11.9980 H   0  0  0  0  0  0  0  0  0  0  0  0
    2.6334  -10.9864    9.4766 H   0  0  0  0  0  0  0  0  0  0  0  0
    4.0801   -9.2486   13.7055 H   0  0  0  0  0  0  0  0  0  0  0  0
    8.6870  -10.7754   13.9872 H   0  0  0  0  0  0  0  0  0  0  0  0
    9.2118   -9.8021   15.9918 H   0  0  0  0  0  0  0  0  0  0  0  0
    5.5721   -7.6423   13.7862 H   0  0  0  0  0  0  0  0  0  0  0  0
  1  2  2  0
  2  3  1  0
  3  4  1  0
  4  5  1  0
  5  6  1  0
  6  7  1  0
  7  8  1  0
  8  9  1  0
  9 10  1  0
 10 11  1  0
 11 12  1  0
  2 13  1  0
 13 14  2  0
 14 15  1  0
 15 16  2  0
 16 17  1  0
 17 18  1  0
 18 19  1  0
 19 20  2  0
 20 21  1  0
 21 22  2  0
 17 23  2  0
 12  8  1  0
 23 13  1  0
 22 18  1  0
  4 24  1  0
  4 25  1  0
  5 26  1  0
  5 27  1  0
  6 28  1  0
  6 29  1  0
  7 30  1  0
  7 31  1  0
  8 32  1  0
  9 33  1  0
  9 34  1  0
 10 35  1  0
 10 36  1  0
 11 37  1  0
 11 38  1  0
 14 39  1  0
 16 40  1  0
 19 41  1  0
 20 42  1  0
 22 43  1  0
M  END
>  <Energy>  (1138) 
1428.372620262008

>  <compound_id>  (1138) 
6430

>  <target_id>  (1138) 
1

>  <reference_id>  (1138) 
28

>  <inspiration_ids>  (1138) 
[114, 28]

>  <energy_score>  (1138) 
1262.4158098863734

>  <distance_score>  (1138) 
8.299667855760571

>  <path>  (1138) 
/opt/xchem-fragalysis-2/maxwin/BulkDock/SCRATCH/511018/C6430-P28/C6430-P28.minimised.mol

>  <scratch_subdir>  (1138) 
/opt/xchem-fragalysis-2/maxwin/BulkDock/SCRATCH/511018/C6430-P28

>  <fragmenstein_runtime>  (1138) 
15.595459938049316

>  <fragmenstein_outcome>  (1138) 
too moved

>  <fragmenstein_mode>  (1138) 
expansion

>  <fragmenstein_error>  (1138) 


$$$$
C6431-P114
     RDKit          3D

 37 39  0  0  0  0  0  0  0  0999 V2000
    1.4448  -16.1335   10.6669 O   0  0  0  0  0  0  0  0  0  0  0  0
    0.4957  -15.3984   10.9416 C   0  0  0  0  0  0  0  0  0  0  0  0
   -0.7326  -15.9790   10.6435 O   0  0  0  0  0  0  0  0  0  0  0  0
   -0.5148  -17.2771    9.8791 C   0  0  0  0  0  0  0  0  0  0  0  0
   -1.7233  -17.9644    9.1265 C   0  0  0  0  0  0  0  0  0  0  0  0
   -1.5385  -19.5078    9.1290 C   0  0  0  0  0  0  0  0  0  0  0  0
   -2.3660  -20.2729    8.1074 C   0  0  0  0  0  0  0  0  0  0  0  0
   -3.5320  -20.7795    8.9051 C   0  0  0  0  0  0  0  0  0  0  0  0
   -2.9406  -21.0040   10.2756 C   0  0  0  0  0  0  0  0  0  0  0  0
   -1.8788  -20.0464   10.4174 O   0  0  0  0  0  0  0  0  0  0  0  0
    0.6997  -13.7038   11.5244 C   0  0  0  0  0  0  0  0  0  0  0  0
   -0.0472  -13.1850   12.4370 C   0  0  0  0  0  0  0  0  0  0  0  0
   -0.1888  -11.8607   12.2954 N   0  0  0  0  0  0  0  0  0  0  0  0
    0.7380  -11.0379   11.6449 C   0  0  0  0  0  0  0  0  0  0  0  0
    1.9705  -11.3122   11.2099 C   0  0  0  0  0  0  0  0  0  0  0  0
    3.1002  -10.3305   11.6980 N   0  0  0  0  0  0  0  0  0  0  0  0
    3.9980  -10.3456   13.2623 C   0  0  0  0  0  0  0  0  0  0  0  0
    4.3664   -8.9957   13.5670 C   0  0  0  0  0  0  0  0  0  0  0  0
    3.9388   -7.9962   12.6966 N   0  0  0  0  0  0  0  0  0  0  0  0
    3.3104   -8.5528   11.5810 C   0  0  0  0  0  0  0  0  0  0  0  0
    1.9088  -12.6896   10.8953 N   0  0  0  0  0  0  0  0  0  0  0  0
    0.2385  -17.1051    9.0968 H   0  0  0  0  0  0  0  0  0  0  0  0
   -0.0664  -17.9834   10.5926 H   0  0  0  0  0  0  0  0  0  0  0  0
   -2.6955  -17.6670    9.5205 H   0  0  0  0  0  0  0  0  0  0  0  0
   -1.7010  -17.6026    8.0907 H   0  0  0  0  0  0  0  0  0  0  0  0
   -0.4786  -19.7253    8.9478 H   0  0  0  0  0  0  0  0  0  0  0  0
   -2.6561  -19.6753    7.2385 H   0  0  0  0  0  0  0  0  0  0  0  0
   -1.7862  -21.1283    7.7385 H   0  0  0  0  0  0  0  0  0  0  0  0
   -4.2660  -19.9788    8.9210 H   0  0  0  0  0  0  0  0  0  0  0  0
   -3.9973  -21.6740    8.4840 H   0  0  0  0  0  0  0  0  0  0  0  0
   -3.6504  -20.8840   11.0947 H   0  0  0  0  0  0  0  0  0  0  0  0
   -2.4947  -22.0017   10.3498 H   0  0  0  0  0  0  0  0  0  0  0  0
   -0.4859  -13.7425   13.2337 H   0  0  0  0  0  0  0  0  0  0  0  0
    0.5218  -10.0097   11.6651 H   0  0  0  0  0  0  0  0  0  0  0  0
    4.6076  -11.1993   13.5375 H   0  0  0  0  0  0  0  0  0  0  0  0
    5.2740   -8.7033   14.0414 H   0  0  0  0  0  0  0  0  0  0  0  0
    2.4264   -7.9194   11.3394 H   0  0  0  0  0  0  0  0  0  0  0  0
  1  2  2  0
  2  3  1  0
  3  4  1  0
  4  5  1  0
  5  6  1  0
  6  7  1  0
  7  8  1  0
  8  9  1  0
  9 10  1  0
  2 11  1  0
 11 12  2  0
 12 13  1  0
 13 14  2  0
 14 15  1  0
 15 16  1  0
 16 17  1  0
 17 18  2  0
 18 19  1  0
 19 20  2  0
 15 21  2  0
 10  6  1  0
 21 11  1  0
 20 16  1  0
  4 22  1  0
  4 23  1  0
  5 24  1  0
  5 25  1  0
  6 26  1  0
  7 27  1  0
  7 28  1  0
  8 29  1  0
  8 30  1  0
  9 31  1  0
  9 32  1  0
 12 33  1  0
 14 34  1  0
 17 35  1  0
 18 36  1  0
 20 37  1  0
M  END
>  <Energy>  (1139) 
421.36007599515744

>  <compound_id>  (1139) 
6431

>  <target_id>  (1139) 
1

>  <reference_id>  (1139) 
114

>  <inspiration_ids>  (1139) 
[114, 28]

>  <energy_score>  (1139) 
255.87827150728697

>  <distance_score>  (1139) 
11.206509512593698

>  <path>  (1139) 
/opt/xchem-fragalysis-2/maxwin/BulkDock/SCRATCH/511018/C6431-P114/C6431-P114.minimised.mol

>  <scratch_subdir>  (1139) 
/opt/xchem-fragalysis-2/maxwin/BulkDock/SCRATCH/511018/C6431-P114

>  <fragmenstein_runtime>  (1139) 
14.837975025177002

>  <fragmenstein_outcome>  (1139) 
too moved

>  <fragmenstein_mode>  (1139) 
expansion

>  <fragmenstein_error>  (1139) 


$$$$
C6431-P28
     RDKit          3D

 37 39  0  0  0  0  0  0  0  0999 V2000
    0.0093  -15.2787   11.5036 O   0  0  0  0  0  0  0  0  0  0  0  0
   -0.8333  -14.3851   11.6561 C   0  0  0  0  0  0  0  0  0  0  0  0
   -2.4496  -14.8945   11.3597 O   0  0  0  0  0  0  0  0  0  0  0  0
   -4.1038  -15.4676   12.1162 C   0  0  0  0  0  0  0  0  0  0  0  0
   -4.9330  -16.7822   13.0630 C   0  0  0  0  0  0  0  0  0  0  0  0
   -5.8769  -18.2975   12.7552 C   0  0  0  0  0  0  0  0  0  0  0  0
   -6.6209  -19.6040   11.8554 C   0  0  0  0  0  0  0  0  0  0  0  0
   -5.8132  -20.8762   11.8996 C   0  0  0  0  0  0  0  0  0  0  0  0
   -4.4562  -20.4042   12.2239 C   0  0  0  0  0  0  0  0  0  0  0  0
   -4.6401  -19.0508   12.6903 O   0  0  0  0  0  0  0  0  0  0  0  0
   -0.1453  -12.7520   12.0068 C   0  0  0  0  0  0  0  0  0  0  0  0
   -0.4329  -11.6705   11.3530 C   0  0  0  0  0  0  0  0  0  0  0  0
    0.3886  -10.6305   10.6283 N   0  0  0  0  0  0  0  0  0  0  0  0
    1.6052  -10.4023   10.7343 C   0  0  0  0  0  0  0  0  0  0  0  0
    1.7846  -10.7933   11.8919 C   0  0  0  0  0  0  0  0  0  0  0  0
    3.2869   -9.9319   12.0948 N   0  0  0  0  0  0  0  0  0  0  0  0
    4.1890   -9.7848   13.5610 C   0  0  0  0  0  0  0  0  0  0  0  0
    4.4863   -8.3728   13.6987 C   0  0  0  0  0  0  0  0  0  0  0  0
    3.9695   -7.4689   12.8009 N   0  0  0  0  0  0  0  0  0  0  0  0
    3.4395   -8.1690   11.7700 C   0  0  0  0  0  0  0  0  0  0  0  0
    0.8303  -12.0857   12.6074 N   0  0  0  0  0  0  0  0  0  0  0  0
   -4.6441  -15.6765   11.1730 H   0  0  0  0  0  0  0  0  0  0  0  0
   -4.2722  -14.6354   12.7837 H   0  0  0  0  0  0  0  0  0  0  0  0
   -5.7445  -16.1788   13.5033 H   0  0  0  0  0  0  0  0  0  0  0  0
   -4.2453  -16.9829   13.8892 H   0  0  0  0  0  0  0  0  0  0  0  0
   -6.2639  -17.6486   11.9490 H   0  0  0  0  0  0  0  0  0  0  0  0
   -6.7315  -19.4208   10.7885 H   0  0  0  0  0  0  0  0  0  0  0  0
   -7.6473  -19.8380   12.1185 H   0  0  0  0  0  0  0  0  0  0  0  0
   -5.6727  -21.3875   10.9611 H   0  0  0  0  0  0  0  0  0  0  0  0
   -6.3169  -21.5709   12.5647 H   0  0  0  0  0  0  0  0  0  0  0  0
   -3.8032  -20.4003   11.3391 H   0  0  0  0  0  0  0  0  0  0  0  0
   -3.8320  -20.9696   12.9008 H   0  0  0  0  0  0  0  0  0  0  0  0
   -1.0817  -11.0879   12.0225 H   0  0  0  0  0  0  0  0  0  0  0  0
    2.3939  -10.5990   10.0271 H   0  0  0  0  0  0  0  0  0  0  0  0
    4.6702  -10.6708   13.9455 H   0  0  0  0  0  0  0  0  0  0  0  0
    5.4179   -7.9898   14.0790 H   0  0  0  0  0  0  0  0  0  0  0  0
    2.5235   -7.6904   11.3579 H   0  0  0  0  0  0  0  0  0  0  0  0
  1  2  2  0
  2  3  1  0
  3  4  1  0
  4  5  1  0
  5  6  1  0
  6  7  1  0
  7  8  1  0
  8  9  1  0
  9 10  1  0
  2 11  1  0
 11 12  2  0
 12 13  1  0
 13 14  2  0
 14 15  1  0
 15 16  1  0
 16 17  1  0
 17 18  2  0
 18 19  1  0
 19 20  2  0
 15 21  2  0
 10  6  1  0
 21 11  1  0
 20 16  1  0
  4 22  1  0
  4 23  1  0
  5 24  1  0
  5 25  1  0
  6 26  1  0
  7 27  1  0
  7 28  1  0
  8 29  1  0
  8 30  1  0
  9 31  1  0
  9 32  1  0
 12 33  1  0
 14 34  1  0
 17 35  1  0
 18 36  1  0
 20 37  1  0
M  END
>  <Energy>  (1140) 
872.96574319766898

>  <compound_id>  (1140) 
6431

>  <target_id>  (1140) 
1

>  <reference_id>  (1140) 
28

>  <inspiration_ids>  (1140) 
[114, 28]

>  <energy_score>  (1140) 
707.4839387097909

>  <distance_score>  (1140) 
10.040657606560801

>  <path>  (1140) 
/opt/xchem-fragalysis-2/maxwin/BulkDock/SCRATCH/511018/C6431-P28/C6431-P28.minimised.mol

>  <scratch_subdir>  (1140) 
/opt/xchem-fragalysis-2/maxwin/BulkDock/SCRATCH/511018/C6431-P28

>  <fragmenstein_runtime>  (1140) 
17.042458295822144

>  <fragmenstein_outcome>  (1140) 
too moved

>  <fragmenstein_mode>  (1140) 
expansion

>  <fragmenstein_error>  (1140) 


$$$$
C6432-P114
     RDKit          3D

 37 39  0  0  0  0  0  0  0  0999 V2000
   -6.1657  -15.8491   12.9574 C   0  0  0  0  0  0  0  0  0  0  0  0
   -5.2012  -16.6918   14.0897 C   0  0  0  0  0  0  0  0  0  0  0  0
   -3.4070  -16.1772   14.4717 O   0  0  0  0  0  0  0  0  0  0  0  0
   -2.2227  -14.9244   14.9642 C   0  0  0  0  0  0  0  0  0  0  0  0
   -2.4062  -14.5842   16.1531 O   0  0  0  0  0  0  0  0  0  0  0  0
   -0.7705  -14.0753   13.7430 C   0  0  0  0  0  0  0  0  0  0  0  0
   -0.1749  -14.6417   12.6213 C   0  0  0  0  0  0  0  0  0  0  0  0
   -0.0744  -13.9445   11.4914 N   0  0  0  0  0  0  0  0  0  0  0  0
    0.0979  -12.6068   11.5150 C   0  0  0  0  0  0  0  0  0  0  0  0
    0.4943  -11.9985   12.5617 C   0  0  0  0  0  0  0  0  0  0  0  0
    2.0401  -11.0881   12.4110 N   0  0  0  0  0  0  0  0  0  0  0  0
    3.4454  -10.6815   13.5512 C   0  0  0  0  0  0  0  0  0  0  0  0
    4.6134  -10.8875   12.9526 C   0  0  0  0  0  0  0  0  0  0  0  0
    3.9186  -11.1606   11.2889 N   0  0  0  0  0  0  0  0  0  0  0  0
    2.6549  -10.8613   11.1784 C   0  0  0  0  0  0  0  0  0  0  0  0
   -0.1839  -12.6617   13.6095 N   0  0  0  0  0  0  0  0  0  0  0  0
   -5.8750  -18.3594   13.1559 C   0  0  0  0  0  0  0  0  0  0  0  0
   -5.2411  -19.9134   12.5089 C   0  0  0  0  0  0  0  0  0  0  0  0
   -6.8157  -20.6405   12.6229 C   0  0  0  0  0  0  0  0  0  0  0  0
   -7.4668  -19.5928   11.8403 C   0  0  0  0  0  0  0  0  0  0  0  0
   -6.9153  -18.2210   12.2687 O   0  0  0  0  0  0  0  0  0  0  0  0
   -6.3962  -16.2574   11.9885 H   0  0  0  0  0  0  0  0  0  0  0  0
   -7.1800  -15.7930   13.3918 H   0  0  0  0  0  0  0  0  0  0  0  0
   -5.8181  -14.8427   12.7114 H   0  0  0  0  0  0  0  0  0  0  0  0
   -4.4169  -17.3883   14.4176 H   0  0  0  0  0  0  0  0  0  0  0  0
    0.0426  -15.6709   12.3941 H   0  0  0  0  0  0  0  0  0  0  0  0
   -0.4398  -11.9622   10.8597 H   0  0  0  0  0  0  0  0  0  0  0  0
    3.3642  -10.7124   14.5911 H   0  0  0  0  0  0  0  0  0  0  0  0
    5.5957  -11.2061   13.2414 H   0  0  0  0  0  0  0  0  0  0  0  0
    2.1478  -10.4799   10.3348 H   0  0  0  0  0  0  0  0  0  0  0  0
   -6.3155  -18.6089   14.0206 H   0  0  0  0  0  0  0  0  0  0  0  0
   -4.7426  -20.1509   11.5749 H   0  0  0  0  0  0  0  0  0  0  0  0
   -4.4453  -20.3844   13.0727 H   0  0  0  0  0  0  0  0  0  0  0  0
   -7.3209  -21.6082   12.4077 H   0  0  0  0  0  0  0  0  0  0  0  0
   -7.0953  -20.9747   13.6013 H   0  0  0  0  0  0  0  0  0  0  0  0
   -8.5692  -19.6924   11.8856 H   0  0  0  0  0  0  0  0  0  0  0  0
   -7.3595  -19.5769   10.8034 H   0  0  0  0  0  0  0  0  0  0  0  0
  1  2  1  0
  2  3  1  0
  3  4  1  0
  4  5  2  0
  4  6  1  0
  6  7  2  0
  7  8  1  0
  8  9  2  0
  9 10  1  0
 10 11  1  0
 11 12  1  0
 12 13  2  0
 13 14  1  0
 14 15  2  0
 10 16  2  0
  2 17  1  0
 17 18  1  0
 18 19  1  0
 19 20  1  0
 20 21  1  0
 16  6  1  0
 21 17  1  0
 15 11  1  0
  1 22  1  0
  1 23  1  0
  1 24  1  0
  2 25  1  0
  7 26  1  0
  9 27  1  0
 12 28  1  0
 13 29  1  0
 15 30  1  0
 17 31  1  0
 18 32  1  0
 18 33  1  0
 19 34  1  0
 19 35  1  0
 20 36  1  0
 20 37  1  0
M  END
>  <Energy>  (1141) 
974.6632999810455

>  <compound_id>  (1141) 
6432

>  <target_id>  (1141) 
1

>  <reference_id>  (1141) 
114

>  <inspiration_ids>  (1141) 
[114, 28]

>  <energy_score>  (1141) 
800.5706132593314

>  <distance_score>  (1141) 
10.618773398067304

>  <path>  (1141) 
/opt/xchem-fragalysis-2/maxwin/BulkDock/SCRATCH/511018/C6432-P114/C6432-P114.minimised.mol

>  <scratch_subdir>  (1141) 
/opt/xchem-fragalysis-2/maxwin/BulkDock/SCRATCH/511018/C6432-P114

>  <fragmenstein_runtime>  (1141) 
19.101439714431763

>  <fragmenstein_outcome>  (1141) 
too moved

>  <fragmenstein_mode>  (1141) 
expansion

>  <fragmenstein_error>  (1141) 


$$$$
C6432-P28
     RDKit          3D

 37 39  0  0  0  0  0  0  0  0999 V2000
   -6.1124  -18.0096    9.0954 C   0  0  0  0  0  0  0  0  0  0  0  0
   -6.4238  -17.2386   11.0743 C   0  0  0  0  0  0  0  0  0  0  0  0
   -5.5281  -15.6238   11.7003 O   0  0  0  0  0  0  0  0  0  0  0  0
   -3.8757  -14.7953   12.1490 C   0  0  0  0  0  0  0  0  0  0  0  0
   -4.0223  -14.0805   13.1143 O   0  0  0  0  0  0  0  0  0  0  0  0
   -2.2481  -14.8373   11.2570 C   0  0  0  0  0  0  0  0  0  0  0  0
   -1.7712  -15.5496   10.2921 C   0  0  0  0  0  0  0  0  0  0  0  0
   -0.4551  -16.0953   10.5035 N   0  0  0  0  0  0  0  0  0  0  0  0
    0.5022  -15.4196   11.2289 C   0  0  0  0  0  0  0  0  0  0  0  0
    0.2047  -14.1809   11.7224 C   0  0  0  0  0  0  0  0  0  0  0  0
    0.8996  -12.7876   11.5278 N   0  0  0  0  0  0  0  0  0  0  0  0
    2.1622  -12.0739   10.7733 C   0  0  0  0  0  0  0  0  0  0  0  0
    2.1177  -10.7711   11.1180 C   0  0  0  0  0  0  0  0  0  0  0  0
    0.9060  -10.5151   11.5966 N   0  0  0  0  0  0  0  0  0  0  0  0
    0.2826  -11.6291   11.9133 C   0  0  0  0  0  0  0  0  0  0  0  0
   -1.1134  -14.1303   11.9238 N   0  0  0  0  0  0  0  0  0  0  0  0
   -6.4201  -19.0724   11.7748 C   0  0  0  0  0  0  0  0  0  0  0  0
   -7.1344  -20.0442   10.8618 C   0  0  0  0  0  0  0  0  0  0  0  0
   -8.2615  -20.7091   11.6161 C   0  0  0  0  0  0  0  0  0  0  0  0
   -7.2940  -21.2762   12.5416 C   0  0  0  0  0  0  0  0  0  0  0  0
   -6.7121  -19.9890   12.7734 O   0  0  0  0  0  0  0  0  0  0  0  0
   -6.6928  -18.8804    8.9579 H   0  0  0  0  0  0  0  0  0  0  0  0
   -5.1285  -18.2880    8.6135 H   0  0  0  0  0  0  0  0  0  0  0  0
   -6.5269  -17.3283    8.2705 H   0  0  0  0  0  0  0  0  0  0  0  0
   -7.2684  -16.7302   11.5391 H   0  0  0  0  0  0  0  0  0  0  0  0
   -2.3692  -16.0727    9.5451 H   0  0  0  0  0  0  0  0  0  0  0  0
    1.4622  -15.8709   11.0552 H   0  0  0  0  0  0  0  0  0  0  0  0
    2.7520  -12.5013    9.9441 H   0  0  0  0  0  0  0  0  0  0  0  0
    2.9626  -10.1360   11.0403 H   0  0  0  0  0  0  0  0  0  0  0  0
   -0.6284  -11.6424   12.4571 H   0  0  0  0  0  0  0  0  0  0  0  0
   -5.3797  -19.2607   12.0274 H   0  0  0  0  0  0  0  0  0  0  0  0
   -6.2547  -20.6758   10.6941 H   0  0  0  0  0  0  0  0  0  0  0  0
   -7.6494  -19.7972    9.9672 H   0  0  0  0  0  0  0  0  0  0  0  0
   -8.9183  -19.9037   11.9510 H   0  0  0  0  0  0  0  0  0  0  0  0
   -8.9608  -21.4208   11.2074 H   0  0  0  0  0  0  0  0  0  0  0  0
   -6.5545  -21.9763   12.1420 H   0  0  0  0  0  0  0  0  0  0  0  0
   -7.7041  -21.7565   13.4314 H   0  0  0  0  0  0  0  0  0  0  0  0
  1  2  1  0
  2  3  1  0
  3  4  1  0
  4  5  2  0
  4  6  1  0
  6  7  2  0
  7  8  1  0
  8  9  2  0
  9 10  1  0
 10 11  1  0
 11 12  1  0
 12 13  2  0
 13 14  1  0
 14 15  2  0
 10 16  2  0
  2 17  1  0
 17 18  1  0
 18 19  1  0
 19 20  1  0
 20 21  1  0
 16  6  1  0
 21 17  1  0
 15 11  1  0
  1 22  1  0
  1 23  1  0
  1 24  1  0
  2 25  1  0
  7 26  1  0
  9 27  1  0
 12 28  1  0
 13 29  1  0
 15 30  1  0
 17 31  1  0
 18 32  1  0
 18 33  1  0
 19 34  1  0
 19 35  1  0
 20 36  1  0
 20 37  1  0
M  END
>  <Energy>  (1142) 
777.11766715928309

>  <compound_id>  (1142) 
6432

>  <target_id>  (1142) 
1

>  <reference_id>  (1142) 
28

>  <inspiration_ids>  (1142) 
[114, 28]

>  <energy_score>  (1142) 
603.0249804375571

>  <distance_score>  (1142) 
11.253283624487796

>  <path>  (1142) 
/opt/xchem-fragalysis-2/maxwin/BulkDock/SCRATCH/511018/C6432-P28/C6432-P28.minimised.mol

>  <scratch_subdir>  (1142) 
/opt/xchem-fragalysis-2/maxwin/BulkDock/SCRATCH/511018/C6432-P28

>  <fragmenstein_runtime>  (1142) 
12.76112174987793

>  <fragmenstein_outcome>  (1142) 
too moved

>  <fragmenstein_mode>  (1142) 
expansion

>  <fragmenstein_error>  (1142) 


$$$$
C6433-P114
     RDKit          3D

 40 42  0  0  0  0  0  0  0  0999 V2000
   -6.6626  -16.7712   12.6367 C   0  0  0  0  0  0  0  0  0  0  0  0
   -6.0381  -17.9969   13.2787 C   0  0  0  0  0  0  0  0  0  0  0  0
   -6.6710  -19.6251   12.2471 C   0  0  0  0  0  0  0  0  0  0  0  0
   -7.6959  -21.2526   12.4283 C   0  0  0  0  0  0  0  0  0  0  0  0
   -9.0657  -21.0028   11.6315 C   0  0  0  0  0  0  0  0  0  0  0  0
   -9.7291  -22.3209   11.3308 C   0  0  0  0  0  0  0  0  0  0  0  0
   -8.8727  -23.2920   12.0452 C   0  0  0  0  0  0  0  0  0  0  0  0
   -7.5638  -22.7063   12.0815 O   0  0  0  0  0  0  0  0  0  0  0  0
   -4.5793  -16.9286   13.7401 O   0  0  0  0  0  0  0  0  0  0  0  0
   -4.1360  -15.7168   14.5863 C   0  0  0  0  0  0  0  0  0  0  0  0
   -5.0868  -15.2024   15.1980 O   0  0  0  0  0  0  0  0  0  0  0  0
   -2.4833  -14.9485   15.0153 C   0  0  0  0  0  0  0  0  0  0  0  0
   -2.4927  -14.7445   16.3366 C   0  0  0  0  0  0  0  0  0  0  0  0
   -1.3516  -14.1634   16.6999 N   0  0  0  0  0  0  0  0  0  0  0  0
    0.1988  -14.5047   15.9896 C   0  0  0  0  0  0  0  0  0  0  0  0
    0.1430  -13.8900   14.1368 C   0  0  0  0  0  0  0  0  0  0  0  0
    1.4833  -12.5063   14.5546 N   0  0  0  0  0  0  0  0  0  0  0  0
    1.9526  -11.2666   13.3975 C   0  0  0  0  0  0  0  0  0  0  0  0
    3.5188  -10.7235   13.8692 C   0  0  0  0  0  0  0  0  0  0  0  0
    4.1023  -11.3282   14.9113 N   0  0  0  0  0  0  0  0  0  0  0  0
    3.1628  -12.0262   15.5239 C   0  0  0  0  0  0  0  0  0  0  0  0
   -1.2259  -14.0513   13.9570 N   0  0  0  0  0  0  0  0  0  0  0  0
   -6.3607  -15.8198   13.0830 H   0  0  0  0  0  0  0  0  0  0  0  0
   -7.7357  -16.7914   12.8261 H   0  0  0  0  0  0  0  0  0  0  0  0
   -6.4448  -16.6757   11.5770 H   0  0  0  0  0  0  0  0  0  0  0  0
   -5.1246  -18.5728   13.2532 H   0  0  0  0  0  0  0  0  0  0  0  0
   -6.6775  -19.4810   11.2015 H   0  0  0  0  0  0  0  0  0  0  0  0
   -7.6345  -19.2132   12.0927 H   0  0  0  0  0  0  0  0  0  0  0  0
   -7.5298  -21.5218   13.4738 H   0  0  0  0  0  0  0  0  0  0  0  0
   -8.8579  -20.5131   10.6779 H   0  0  0  0  0  0  0  0  0  0  0  0
   -9.7678  -20.3232   12.1166 H   0  0  0  0  0  0  0  0  0  0  0  0
  -10.7578  -22.3898   11.6882 H   0  0  0  0  0  0  0  0  0  0  0  0
   -9.7381  -22.5111   10.2528 H   0  0  0  0  0  0  0  0  0  0  0  0
   -8.8286  -24.2687   11.5557 H   0  0  0  0  0  0  0  0  0  0  0  0
   -9.2636  -23.4210   13.0612 H   0  0  0  0  0  0  0  0  0  0  0  0
   -3.2834  -14.9171   17.0405 H   0  0  0  0  0  0  0  0  0  0  0  0
    1.0656  -14.2414   16.6309 H   0  0  0  0  0  0  0  0  0  0  0  0
    1.3727  -11.2355   12.4292 H   0  0  0  0  0  0  0  0  0  0  0  0
    4.1235  -10.0391   13.3361 H   0  0  0  0  0  0  0  0  0  0  0  0
    2.9388  -11.7996   16.5935 H   0  0  0  0  0  0  0  0  0  0  0  0
  1  2  1  0
  2  3  1  0
  3  4  1  0
  4  5  1  0
  5  6  1  0
  6  7  1  0
  7  8  1  0
  2  9  1  0
  9 10  1  0
 10 11  2  0
 10 12  1  0
 12 13  2  0
 13 14  1  0
 14 15  2  0
 15 16  1  0
 16 17  1  0
 17 18  1  0
 18 19  2  0
 19 20  1  0
 20 21  2  0
 16 22  2  0
  8  4  1  0
 22 12  1  0
 21 17  1  0
  1 23  1  0
  1 24  1  0
  1 25  1  0
  2 26  1  0
  3 27  1  0
  3 28  1  0
  4 29  1  0
  5 30  1  0
  5 31  1  0
  6 32  1  0
  6 33  1  0
  7 34  1  0
  7 35  1  0
 13 36  1  0
 15 37  1  0
 18 38  1  0
 19 39  1  0
 21 40  1  0
M  END
>  <Energy>  (1143) 
1162.8746300024686

>  <compound_id>  (1143) 
6433

>  <target_id>  (1143) 
1

>  <reference_id>  (1143) 
114

>  <inspiration_ids>  (1143) 
[114, 28]

>  <energy_score>  (1143) 
1001.4496815686807

>  <distance_score>  (1143) 
9.945383376677013

>  <path>  (1143) 
/opt/xchem-fragalysis-2/maxwin/BulkDock/SCRATCH/511018/C6433-P114/C6433-P114.minimised.mol

>  <scratch_subdir>  (1143) 
/opt/xchem-fragalysis-2/maxwin/BulkDock/SCRATCH/511018/C6433-P114

>  <fragmenstein_runtime>  (1143) 
20.51613426208496

>  <fragmenstein_outcome>  (1143) 
too moved

>  <fragmenstein_mode>  (1143) 
expansion

>  <fragmenstein_error>  (1143) 


$$$$
C6433-P28
     RDKit          3D

 40 42  0  0  0  0  0  0  0  0999 V2000
   -4.8125  -17.6996   13.5853 C   0  0  0  0  0  0  0  0  0  0  0  0
   -5.3959  -16.3855   13.2748 C   0  0  0  0  0  0  0  0  0  0  0  0
   -6.1839  -17.2504   11.9778 C   0  0  0  0  0  0  0  0  0  0  0  0
   -6.5294  -19.1589   11.7802 C   0  0  0  0  0  0  0  0  0  0  0  0
   -5.8009  -20.4921   12.0069 C   0  0  0  0  0  0  0  0  0  0  0  0
   -7.0143  -21.4090   12.3426 C   0  0  0  0  0  0  0  0  0  0  0  0
   -8.1522  -20.7375   11.5623 C   0  0  0  0  0  0  0  0  0  0  0  0
   -7.3809  -19.8405   10.7397 O   0  0  0  0  0  0  0  0  0  0  0  0
   -4.0728  -15.6078   13.8362 O   0  0  0  0  0  0  0  0  0  0  0  0
   -3.4481  -14.1959   13.7163 C   0  0  0  0  0  0  0  0  0  0  0  0
   -4.3412  -13.3697   13.4940 O   0  0  0  0  0  0  0  0  0  0  0  0
   -1.3075  -13.8601   13.7714 C   0  0  0  0  0  0  0  0  0  0  0  0
   -0.7414  -14.4884   12.3474 C   0  0  0  0  0  0  0  0  0  0  0  0
    0.3375  -14.4702   11.6884 N   0  0  0  0  0  0  0  0  0  0  0  0
    0.8653  -13.3386   12.0485 C   0  0  0  0  0  0  0  0  0  0  0  0
    0.4993  -12.1844   12.6899 C   0  0  0  0  0  0  0  0  0  0  0  0
    1.7536  -10.9159   12.7540 N   0  0  0  0  0  0  0  0  0  0  0  0
    3.1335  -10.4336   13.9199 C   0  0  0  0  0  0  0  0  0  0  0  0
    4.0690   -9.9750   13.1749 C   0  0  0  0  0  0  0  0  0  0  0  0
    3.3841  -10.1248   11.5467 N   0  0  0  0  0  0  0  0  0  0  0  0
    2.1521  -10.5051   11.4625 C   0  0  0  0  0  0  0  0  0  0  0  0
   -0.6263  -12.4527   13.4305 N   0  0  0  0  0  0  0  0  0  0  0  0
   -5.6545  -18.3257   13.8012 H   0  0  0  0  0  0  0  0  0  0  0  0
   -4.4174  -18.4262   12.9056 H   0  0  0  0  0  0  0  0  0  0  0  0
   -3.9518  -17.5601   14.2530 H   0  0  0  0  0  0  0  0  0  0  0  0
   -6.1644  -16.0470   13.9729 H   0  0  0  0  0  0  0  0  0  0  0  0
   -5.9607  -16.7351   11.0413 H   0  0  0  0  0  0  0  0  0  0  0  0
   -7.1915  -16.8876   12.2244 H   0  0  0  0  0  0  0  0  0  0  0  0
   -7.3361  -19.0450   12.3703 H   0  0  0  0  0  0  0  0  0  0  0  0
   -4.9029  -20.5081   12.6124 H   0  0  0  0  0  0  0  0  0  0  0  0
   -5.3958  -20.8938   11.0645 H   0  0  0  0  0  0  0  0  0  0  0  0
   -7.2788  -21.4980   13.3871 H   0  0  0  0  0  0  0  0  0  0  0  0
   -6.7836  -22.4348   12.0510 H   0  0  0  0  0  0  0  0  0  0  0  0
   -8.8642  -20.0868   12.0556 H   0  0  0  0  0  0  0  0  0  0  0  0
   -8.9035  -21.3582   11.0968 H   0  0  0  0  0  0  0  0  0  0  0  0
   -1.4834  -14.8424   11.5964 H   0  0  0  0  0  0  0  0  0  0  0  0
    1.7815  -13.7273   12.3592 H   0  0  0  0  0  0  0  0  0  0  0  0
    3.5394  -10.7865   14.9029 H   0  0  0  0  0  0  0  0  0  0  0  0
    5.1033  -10.1900   13.4485 H   0  0  0  0  0  0  0  0  0  0  0  0
    1.4372  -10.4015   10.6827 H   0  0  0  0  0  0  0  0  0  0  0  0
  1  2  1  0
  2  3  1  0
  3  4  1  0
  4  5  1  0
  5  6  1  0
  6  7  1  0
  7  8  1  0
  2  9  1  0
  9 10  1  0
 10 11  2  0
 10 12  1  0
 12 13  2  0
 13 14  1  0
 14 15  2  0
 15 16  1  0
 16 17  1  0
 17 18  1  0
 18 19  2  0
 19 20  1  0
 20 21  2  0
 16 22  2  0
  8  4  1  0
 22 12  1  0
 21 17  1  0
  1 23  1  0
  1 24  1  0
  1 25  1  0
  2 26  1  0
  3 27  1  0
  3 28  1  0
  4 29  1  0
  5 30  1  0
  5 31  1  0
  6 32  1  0
  6 33  1  0
  7 34  1  0
  7 35  1  0
 13 36  1  0
 15 37  1  0
 18 38  1  0
 19 39  1  0
 21 40  1  0
M  END
>  <Energy>  (1144) 
895.92066658658041

>  <compound_id>  (1144) 
6433

>  <target_id>  (1144) 
1

>  <reference_id>  (1144) 
28

>  <inspiration_ids>  (1144) 
[114, 28]

>  <energy_score>  (1144) 
734.4957181527743

>  <distance_score>  (1144) 
10.378316705672704

>  <path>  (1144) 
/opt/xchem-fragalysis-2/maxwin/BulkDock/SCRATCH/511018/C6433-P28/C6433-P28.minimised.mol

>  <scratch_subdir>  (1144) 
/opt/xchem-fragalysis-2/maxwin/BulkDock/SCRATCH/511018/C6433-P28

>  <fragmenstein_runtime>  (1144) 
17.82831573486328

>  <fragmenstein_outcome>  (1144) 
too moved

>  <fragmenstein_mode>  (1144) 
expansion

>  <fragmenstein_error>  (1144) 


$$$$
C6434-P114
     RDKit          3D

 40 42  0  0  0  0  0  0  0  0999 V2000
   -4.2893  -15.1106   12.4301 C   0  0  0  0  0  0  0  0  0  0  0  0
   -3.6393  -14.3971   13.1459 C   0  0  0  0  0  0  0  0  0  0  0  0
   -2.4780  -14.8143   14.7141 C   0  0  0  0  0  0  0  0  0  0  0  0
   -3.6145  -16.4281   14.7950 C   0  0  0  0  0  0  0  0  0  0  0  0
   -5.3109  -16.5476   14.1273 C   0  0  0  0  0  0  0  0  0  0  0  0
   -5.6072  -17.4373   13.0643 C   0  0  0  0  0  0  0  0  0  0  0  0
   -6.7997  -16.8646   12.3660 C   0  0  0  0  0  0  0  0  0  0  0  0
   -7.3277  -15.6797   13.0348 C   0  0  0  0  0  0  0  0  0  0  0  0
   -6.9269  -16.1521   14.2864 O   0  0  0  0  0  0  0  0  0  0  0  0
   -0.9358  -14.0949   13.5936 N   0  0  0  0  0  0  0  0  0  0  0  0
   -0.4793  -12.5456   13.2262 C   0  0  0  0  0  0  0  0  0  0  0  0
   -0.9558  -11.5602   13.6574 O   0  0  0  0  0  0  0  0  0  0  0  0
    0.5091  -12.1897   12.1940 C   0  0  0  0  0  0  0  0  0  0  0  0
    0.1983  -11.3218   11.2789 C   0  0  0  0  0  0  0  0  0  0  0  0
    1.0557  -10.2953   10.5990 N   0  0  0  0  0  0  0  0  0  0  0  0
    2.3793  -10.4528   10.7402 C   0  0  0  0  0  0  0  0  0  0  0  0
    2.6673  -10.8758   11.9090 C   0  0  0  0  0  0  0  0  0  0  0  0
    3.7873  -10.1327   13.0262 N   0  0  0  0  0  0  0  0  0  0  0  0
    4.7857  -10.3344   13.8936 C   0  0  0  0  0  0  0  0  0  0  0  0
    5.2453   -8.8977   13.9889 C   0  0  0  0  0  0  0  0  0  0  0  0
    4.5183   -7.8687   13.7176 N   0  0  0  0  0  0  0  0  0  0  0  0
    3.9272   -8.4513   12.8109 C   0  0  0  0  0  0  0  0  0  0  0  0
    1.4722  -11.3296   12.5607 N   0  0  0  0  0  0  0  0  0  0  0  0
   -4.8030  -15.6362   11.6613 H   0  0  0  0  0  0  0  0  0  0  0  0
   -2.5799  -14.4581   15.7759 H   0  0  0  0  0  0  0  0  0  0  0  0
   -3.8376  -16.4252   15.8778 H   0  0  0  0  0  0  0  0  0  0  0  0
   -3.1093  -17.3555   14.6135 H   0  0  0  0  0  0  0  0  0  0  0  0
   -5.4901  -16.4830   15.1901 H   0  0  0  0  0  0  0  0  0  0  0  0
   -5.7108  -18.4655   13.3417 H   0  0  0  0  0  0  0  0  0  0  0  0
   -4.7873  -17.3146   12.4250 H   0  0  0  0  0  0  0  0  0  0  0  0
   -6.6333  -16.6776   11.3159 H   0  0  0  0  0  0  0  0  0  0  0  0
   -7.5401  -17.5725   12.6545 H   0  0  0  0  0  0  0  0  0  0  0  0
   -6.8684  -14.7351   12.7352 H   0  0  0  0  0  0  0  0  0  0  0  0
   -8.4031  -15.5406   13.0721 H   0  0  0  0  0  0  0  0  0  0  0  0
   -0.4144  -14.7394   13.0175 H   0  0  0  0  0  0  0  0  0  0  0  0
   -0.7656  -11.4562   10.8609 H   0  0  0  0  0  0  0  0  0  0  0  0
    3.1302  -10.3694    9.9954 H   0  0  0  0  0  0  0  0  0  0  0  0
    5.2802  -11.2796   13.9921 H   0  0  0  0  0  0  0  0  0  0  0  0
    6.2666   -8.4669   14.0611 H   0  0  0  0  0  0  0  0  0  0  0  0
    3.4387   -8.0586   11.8863 H   0  0  0  0  0  0  0  0  0  0  0  0
  1  2  3  0
  2  3  1  0
  3  4  1  0
  4  5  1  0
  5  6  1  0
  6  7  1  0
  7  8  1  0
  8  9  1  0
  3 10  1  0
 10 11  1  0
 11 12  2  0
 11 13  1  0
 13 14  2  0
 14 15  1  0
 15 16  2  0
 16 17  1  0
 17 18  1  0
 18 19  1  0
 19 20  2  0
 20 21  1  0
 21 22  2  0
 17 23  2  0
  9  5  1  0
 23 13  1  0
 22 18  1  0
  1 24  1  0
  3 25  1  0
  4 26  1  0
  4 27  1  0
  5 28  1  0
  6 29  1  0
  6 30  1  0
  7 31  1  0
  7 32  1  0
  8 33  1  0
  8 34  1  0
 10 35  1  0
 14 36  1  0
 16 37  1  0
 19 38  1  0
 20 39  1  0
 22 40  1  0
M  END
>  <Energy>  (1145) 
814.26925450719853

>  <compound_id>  (1145) 
6434

>  <target_id>  (1145) 
1

>  <reference_id>  (1145) 
114

>  <inspiration_ids>  (1145) 
[114, 28]

>  <energy_score>  (1145) 
690.631139481409

>  <distance_score>  (1145) 
10.650591795619535

>  <path>  (1145) 
/opt/xchem-fragalysis-2/maxwin/BulkDock/SCRATCH/511018/C6434-P114/C6434-P114.minimised.mol

>  <scratch_subdir>  (1145) 
/opt/xchem-fragalysis-2/maxwin/BulkDock/SCRATCH/511018/C6434-P114

>  <fragmenstein_runtime>  (1145) 
33.28036332130432

>  <fragmenstein_outcome>  (1145) 
too moved

>  <fragmenstein_mode>  (1145) 
expansion

>  <fragmenstein_error>  (1145) 


$$$$
C6434-P28
     RDKit          3D

 40 42  0  0  0  0  0  0  0  0999 V2000
   -4.2010  -16.6749   14.1098 C   0  0  0  0  0  0  0  0  0  0  0  0
   -4.5987  -16.2712   13.0492 C   0  0  0  0  0  0  0  0  0  0  0  0
   -4.6711  -16.2638   11.5380 C   0  0  0  0  0  0  0  0  0  0  0  0
   -6.0374  -17.5546   12.1863 C   0  0  0  0  0  0  0  0  0  0  0  0
   -6.5965  -19.3138   11.6896 C   0  0  0  0  0  0  0  0  0  0  0  0
   -5.8511  -20.6419   11.8695 C   0  0  0  0  0  0  0  0  0  0  0  0
   -6.9512  -21.6091   12.3021 C   0  0  0  0  0  0  0  0  0  0  0  0
   -8.2243  -20.9905   11.7906 C   0  0  0  0  0  0  0  0  0  0  0  0
   -7.9592  -19.6519   12.0435 O   0  0  0  0  0  0  0  0  0  0  0  0
   -3.2505  -14.9006   11.6758 N   0  0  0  0  0  0  0  0  0  0  0  0
   -1.4368  -14.9297   11.2360 C   0  0  0  0  0  0  0  0  0  0  0  0
   -0.8735  -15.8630   10.6815 O   0  0  0  0  0  0  0  0  0  0  0  0
   -0.1181  -13.5010   11.6918 C   0  0  0  0  0  0  0  0  0  0  0  0
   -0.3002  -12.5184   12.5047 C   0  0  0  0  0  0  0  0  0  0  0  0
   -0.2326  -11.1752   12.1569 N   0  0  0  0  0  0  0  0  0  0  0  0
    0.7960  -10.5345   11.4823 C   0  0  0  0  0  0  0  0  0  0  0  0
    1.8822  -11.1365   11.2415 C   0  0  0  0  0  0  0  0  0  0  0  0
    3.2080  -10.0028   11.8155 N   0  0  0  0  0  0  0  0  0  0  0  0
    4.0859   -9.8951   13.4002 C   0  0  0  0  0  0  0  0  0  0  0  0
    4.4069   -8.5027   13.6509 C   0  0  0  0  0  0  0  0  0  0  0  0
    3.9358   -7.5508   12.7728 N   0  0  0  0  0  0  0  0  0  0  0  0
    3.3937   -8.2056   11.7124 C   0  0  0  0  0  0  0  0  0  0  0  0
    1.2618  -12.7749   11.2585 N   0  0  0  0  0  0  0  0  0  0  0  0
   -3.6548  -16.9163   14.9886 H   0  0  0  0  0  0  0  0  0  0  0  0
   -5.4430  -15.6588   11.0619 H   0  0  0  0  0  0  0  0  0  0  0  0
   -6.9404  -16.9329   12.2808 H   0  0  0  0  0  0  0  0  0  0  0  0
   -5.8398  -17.8829   13.2086 H   0  0  0  0  0  0  0  0  0  0  0  0
   -6.7150  -19.2896   10.6054 H   0  0  0  0  0  0  0  0  0  0  0  0
   -5.4704  -20.9923   10.9054 H   0  0  0  0  0  0  0  0  0  0  0  0
   -4.9437  -20.5758   12.4648 H   0  0  0  0  0  0  0  0  0  0  0  0
   -7.0833  -21.6187   13.3751 H   0  0  0  0  0  0  0  0  0  0  0  0
   -6.7459  -22.6482   12.0416 H   0  0  0  0  0  0  0  0  0  0  0  0
   -8.4887  -20.8834   10.7541 H   0  0  0  0  0  0  0  0  0  0  0  0
   -9.1190  -21.3921   12.2797 H   0  0  0  0  0  0  0  0  0  0  0  0
   -3.4546  -14.0750   12.1918 H   0  0  0  0  0  0  0  0  0  0  0  0
   -0.6992  -12.7269   13.4513 H   0  0  0  0  0  0  0  0  0  0  0  0
    0.8366   -9.4882   11.2969 H   0  0  0  0  0  0  0  0  0  0  0  0
    4.6681  -10.7401   13.7516 H   0  0  0  0  0  0  0  0  0  0  0  0
    5.3093   -8.1642   14.1024 H   0  0  0  0  0  0  0  0  0  0  0  0
    2.4852   -7.6805   11.3247 H   0  0  0  0  0  0  0  0  0  0  0  0
  1  2  3  0
  2  3  1  0
  3  4  1  0
  4  5  1  0
  5  6  1  0
  6  7  1  0
  7  8  1  0
  8  9  1  0
  3 10  1  0
 10 11  1  0
 11 12  2  0
 11 13  1  0
 13 14  2  0
 14 15  1  0
 15 16  2  0
 16 17  1  0
 17 18  1  0
 18 19  1  0
 19 20  2  0
 20 21  1  0
 21 22  2  0
 17 23  2  0
  9  5  1  0
 23 13  1  0
 22 18  1  0
  1 24  1  0
  3 25  1  0
  4 26  1  0
  4 27  1  0
  5 28  1  0
  6 29  1  0
  6 30  1  0
  7 31  1  0
  7 32  1  0
  8 33  1  0
  8 34  1  0
 10 35  1  0
 14 36  1  0
 16 37  1  0
 19 38  1  0
 20 39  1  0
 22 40  1  0
M  END
>  <Energy>  (1146) 
976.41618787979576

>  <compound_id>  (1146) 
6434

>  <target_id>  (1146) 
1

>  <reference_id>  (1146) 
28

>  <inspiration_ids>  (1146) 
[114, 28]

>  <energy_score>  (1146) 
852.7780728539936

>  <distance_score>  (1146) 
9.325219697954262

>  <path>  (1146) 
/opt/xchem-fragalysis-2/maxwin/BulkDock/SCRATCH/511018/C6434-P28/C6434-P28.minimised.mol

>  <scratch_subdir>  (1146) 
/opt/xchem-fragalysis-2/maxwin/BulkDock/SCRATCH/511018/C6434-P28

>  <fragmenstein_runtime>  (1146) 
18.389931678771973

>  <fragmenstein_outcome>  (1146) 
too moved

>  <fragmenstein_mode>  (1146) 
expansion

>  <fragmenstein_error>  (1146) 


$$$$
C6435-P114
     RDKit          3D

 44 46  0  0  0  0  0  0  0  0999 V2000
   -3.6209  -20.0162   10.0617 C   0  0  0  0  0  0  0  0  0  0  0  0
   -3.0177  -20.4355   11.9223 C   0  0  0  0  0  0  0  0  0  0  0  0
   -3.1499  -22.4594   11.4063 C   0  0  0  0  0  0  0  0  0  0  0  0
   -0.8030  -19.6308   12.3903 C   0  0  0  0  0  0  0  0  0  0  0  0
   -0.4195  -17.5482   12.0431 N   0  0  0  0  0  0  0  0  0  0  0  0
    1.0468  -16.3926   12.4128 C   0  0  0  0  0  0  0  0  0  0  0  0
    1.9504  -17.0309   12.7950 O   0  0  0  0  0  0  0  0  0  0  0  0
    1.5074  -14.2046   12.6400 C   0  0  0  0  0  0  0  0  0  0  0  0
    2.3261  -13.0128   11.1720 C   0  0  0  0  0  0  0  0  0  0  0  0
    4.1140  -12.8049   11.3705 N   0  0  0  0  0  0  0  0  0  0  0  0
    5.0376  -12.4055   13.0193 C   0  0  0  0  0  0  0  0  0  0  0  0
    4.4171  -12.4099   14.4014 C   0  0  0  0  0  0  0  0  0  0  0  0
    6.1149  -11.0774   14.2240 N   0  0  0  0  0  0  0  0  0  0  0  0
    7.7596  -10.3619   15.2014 C   0  0  0  0  0  0  0  0  0  0  0  0
    8.8105  -10.9981   15.9386 C   0  0  0  0  0  0  0  0  0  0  0  0
    8.9982  -11.8622   15.0444 N   0  0  0  0  0  0  0  0  0  0  0  0
    8.1048  -11.0958   14.1973 C   0  0  0  0  0  0  0  0  0  0  0  0
    2.4995  -13.4883   14.3134 N   0  0  0  0  0  0  0  0  0  0  0  0
   -4.8441  -21.1385   12.3193 C   0  0  0  0  0  0  0  0  0  0  0  0
   -6.7522  -21.2210   12.8284 C   0  0  0  0  0  0  0  0  0  0  0  0
   -7.6429  -22.6405   12.3478 C   0  0  0  0  0  0  0  0  0  0  0  0
   -6.4755  -23.8054   11.9337 C   0  0  0  0  0  0  0  0  0  0  0  0
   -5.1426  -22.8933   11.5694 O   0  0  0  0  0  0  0  0  0  0  0  0
   -3.0343  -20.4124    9.1935 H   0  0  0  0  0  0  0  0  0  0  0  0
   -3.5503  -18.9681    9.7662 H   0  0  0  0  0  0  0  0  0  0  0  0
   -4.5336  -20.5354    9.8585 H   0  0  0  0  0  0  0  0  0  0  0  0
   -2.2339  -22.9733   10.9808 H   0  0  0  0  0  0  0  0  0  0  0  0
   -3.2434  -23.1623   12.2507 H   0  0  0  0  0  0  0  0  0  0  0  0
   -3.7145  -22.5615   10.4511 H   0  0  0  0  0  0  0  0  0  0  0  0
    0.1102  -19.9223   11.8064 H   0  0  0  0  0  0  0  0  0  0  0  0
   -0.6225  -19.6968   13.4336 H   0  0  0  0  0  0  0  0  0  0  0  0
   -1.0731  -17.0339   11.6635 H   0  0  0  0  0  0  0  0  0  0  0  0
    2.3786  -13.1168   10.0868 H   0  0  0  0  0  0  0  0  0  0  0  0
    5.1579  -11.3041   12.7233 H   0  0  0  0  0  0  0  0  0  0  0  0
    7.8750   -9.2698   15.5442 H   0  0  0  0  0  0  0  0  0  0  0  0
    9.4700  -10.6871   16.7319 H   0  0  0  0  0  0  0  0  0  0  0  0
    8.8385  -10.8911   13.4970 H   0  0  0  0  0  0  0  0  0  0  0  0
   -5.1306  -20.2816   11.7467 H   0  0  0  0  0  0  0  0  0  0  0  0
   -7.1051  -21.3175   13.8167 H   0  0  0  0  0  0  0  0  0  0  0  0
   -7.2159  -20.3534   12.3273 H   0  0  0  0  0  0  0  0  0  0  0  0
   -8.2379  -22.4052   11.4539 H   0  0  0  0  0  0  0  0  0  0  0  0
   -8.4831  -22.8316   13.0285 H   0  0  0  0  0  0  0  0  0  0  0  0
   -6.7349  -24.3886   11.0537 H   0  0  0  0  0  0  0  0  0  0  0  0
   -5.9676  -24.5216   12.5368 H   0  0  0  0  0  0  0  0  0  0  0  0
  1  2  1  0
  2  3  1  0
  2  4  1  0
  4  5  1  0
  5  6  1  0
  6  7  2  0
  6  8  1  0
  8  9  2  0
  9 10  1  0
 10 11  2  0
 11 12  1  0
 12 13  1  0
 13 14  1  0
 14 15  2  0
 15 16  1  0
 16 17  2  0
 12 18  2  0
  2 19  1  0
 19 20  1  0
 20 21  1  0
 21 22  1  0
 22 23  1  0
 18  8  1  0
 23 19  1  0
 17 13  1  0
  1 24  1  0
  1 25  1  0
  1 26  1  0
  3 27  1  0
  3 28  1  0
  3 29  1  0
  4 30  1  0
  4 31  1  0
  5 32  1  0
  9 33  1  0
 11 34  1  0
 14 35  1  0
 15 36  1  0
 17 37  1  0
 19 38  1  0
 20 39  1  0
 20 40  1  0
 21 41  1  0
 21 42  1  0
 22 43  1  0
 22 44  1  0
M  END
>  <Energy>  (1147) 
3262.0554049919938

>  <compound_id>  (1147) 
6435

>  <target_id>  (1147) 
1

>  <reference_id>  (1147) 
114

>  <inspiration_ids>  (1147) 
[114, 28]

>  <energy_score>  (1147) 
3089.884746369737

>  <distance_score>  (1147) 
8.637051962484051

>  <path>  (1147) 
/opt/xchem-fragalysis-2/maxwin/BulkDock/SCRATCH/511018/C6435-P114/C6435-P114.minimised.mol

>  <scratch_subdir>  (1147) 
/opt/xchem-fragalysis-2/maxwin/BulkDock/SCRATCH/511018/C6435-P114

>  <fragmenstein_runtime>  (1147) 
18.774659395217896

>  <fragmenstein_outcome>  (1147) 
too moved

>  <fragmenstein_mode>  (1147) 
expansion

>  <fragmenstein_error>  (1147) 


$$$$
C6435-P28
     RDKit          3D

 44 46  0  0  0  0  0  0  0  0999 V2000
   -2.1765  -17.6784    7.9741 C   0  0  0  0  0  0  0  0  0  0  0  0
   -0.9598  -18.1368    7.1240 C   0  0  0  0  0  0  0  0  0  0  0  0
   -0.8634  -17.1550    5.9540 C   0  0  0  0  0  0  0  0  0  0  0  0
    0.5245  -18.2392    7.8082 C   0  0  0  0  0  0  0  0  0  0  0  0
    1.5768  -17.1839    8.1621 N   0  0  0  0  0  0  0  0  0  0  0  0
    1.8131  -16.4317    9.4182 C   0  0  0  0  0  0  0  0  0  0  0  0
    1.1853  -16.4051   10.4408 O   0  0  0  0  0  0  0  0  0  0  0  0
    3.1763  -15.5834    9.5327 C   0  0  0  0  0  0  0  0  0  0  0  0
    4.2677  -16.3688    9.9874 C   0  0  0  0  0  0  0  0  0  0  0  0
    5.5659  -15.7772   10.1155 N   0  0  0  0  0  0  0  0  0  0  0  0
    5.8007  -14.2387   10.0522 C   0  0  0  0  0  0  0  0  0  0  0  0
    4.6819  -13.2281    9.9357 C   0  0  0  0  0  0  0  0  0  0  0  0
    4.4390  -11.9197   11.1672 N   0  0  0  0  0  0  0  0  0  0  0  0
    5.2891  -11.0888   12.7746 C   0  0  0  0  0  0  0  0  0  0  0  0
    4.2841  -10.1729   13.2821 C   0  0  0  0  0  0  0  0  0  0  0  0
    3.2227  -10.1162   11.8341 N   0  0  0  0  0  0  0  0  0  0  0  0
    3.4466  -10.9290   10.8050 C   0  0  0  0  0  0  0  0  0  0  0  0
    3.3417  -13.9788    9.4360 N   0  0  0  0  0  0  0  0  0  0  0  0
   -1.3798  -19.5269    6.4715 C   0  0  0  0  0  0  0  0  0  0  0  0
   -1.1985  -20.7932    7.2962 C   0  0  0  0  0  0  0  0  0  0  0  0
   -2.3358  -21.6736    6.8310 C   0  0  0  0  0  0  0  0  0  0  0  0
   -3.4301  -20.6662    6.6028 C   0  0  0  0  0  0  0  0  0  0  0  0
   -2.7777  -19.5120    6.0614 O   0  0  0  0  0  0  0  0  0  0  0  0
   -1.8932  -16.9954    8.7669 H   0  0  0  0  0  0  0  0  0  0  0  0
   -2.9207  -17.1524    7.3629 H   0  0  0  0  0  0  0  0  0  0  0  0
   -2.7171  -18.5130    8.4261 H   0  0  0  0  0  0  0  0  0  0  0  0
   -0.0731  -17.4510    5.2539 H   0  0  0  0  0  0  0  0  0  0  0  0
   -0.6169  -16.1478    6.3004 H   0  0  0  0  0  0  0  0  0  0  0  0
   -1.7950  -17.0892    5.3802 H   0  0  0  0  0  0  0  0  0  0  0  0
    1.0951  -18.8411    7.0853 H   0  0  0  0  0  0  0  0  0  0  0  0
    0.4823  -18.8760    8.6899 H   0  0  0  0  0  0  0  0  0  0  0  0
    2.3541  -17.0319    7.5327 H   0  0  0  0  0  0  0  0  0  0  0  0
    4.2045  -17.4319   10.1831 H   0  0  0  0  0  0  0  0  0  0  0  0
    6.8230  -14.0698   10.3553 H   0  0  0  0  0  0  0  0  0  0  0  0
    5.8658  -11.8387   13.3338 H   0  0  0  0  0  0  0  0  0  0  0  0
    3.8793   -9.9950   14.2362 H   0  0  0  0  0  0  0  0  0  0  0  0
    2.9375  -11.0546    9.8725 H   0  0  0  0  0  0  0  0  0  0  0  0
   -0.8071  -19.6607    5.5435 H   0  0  0  0  0  0  0  0  0  0  0  0
   -0.2183  -21.2539    7.1401 H   0  0  0  0  0  0  0  0  0  0  0  0
   -1.2815  -20.5711    8.3520 H   0  0  0  0  0  0  0  0  0  0  0  0
   -2.6139  -22.4666    7.5261 H   0  0  0  0  0  0  0  0  0  0  0  0
   -2.0603  -22.1435    5.8790 H   0  0  0  0  0  0  0  0  0  0  0  0
   -4.1910  -21.0181    5.9016 H   0  0  0  0  0  0  0  0  0  0  0  0
   -3.9113  -20.3718    7.5387 H   0  0  0  0  0  0  0  0  0  0  0  0
  1  2  1  0
  2  3  1  0
  2  4  1  0
  4  5  1  0
  5  6  1  0
  6  7  2  0
  6  8  1  0
  8  9  2  0
  9 10  1  0
 10 11  2  0
 11 12  1  0
 12 13  1  0
 13 14  1  0
 14 15  2  0
 15 16  1  0
 16 17  2  0
 12 18  2  0
  2 19  1  0
 19 20  1  0
 20 21  1  0
 21 22  1  0
 22 23  1  0
 18  8  1  0
 23 19  1  0
 17 13  1  0
  1 24  1  0
  1 25  1  0
  1 26  1  0
  3 27  1  0
  3 28  1  0
  3 29  1  0
  4 30  1  0
  4 31  1  0
  5 32  1  0
  9 33  1  0
 11 34  1  0
 14 35  1  0
 15 36  1  0
 17 37  1  0
 19 38  1  0
 20 39  1  0
 20 40  1  0
 21 41  1  0
 21 42  1  0
 22 43  1  0
 22 44  1  0
M  END
>  <Energy>  (1148) 
488.16958295089273

>  <compound_id>  (1148) 
6435

>  <target_id>  (1148) 
1

>  <reference_id>  (1148) 
28

>  <inspiration_ids>  (1148) 
[114, 28]

>  <energy_score>  (1148) 
315.9989243286594

>  <distance_score>  (1148) 
12.686881240478503

>  <path>  (1148) 
/opt/xchem-fragalysis-2/maxwin/BulkDock/SCRATCH/511018/C6435-P28/C6435-P28.minimised.mol

>  <scratch_subdir>  (1148) 
/opt/xchem-fragalysis-2/maxwin/BulkDock/SCRATCH/511018/C6435-P28

>  <fragmenstein_runtime>  (1148) 
33.41563153266907

>  <fragmenstein_outcome>  (1148) 
too moved

>  <fragmenstein_mode>  (1148) 
expansion

>  <fragmenstein_error>  (1148) 


$$$$
C6436-P114
     RDKit          3D

 38 40  0  0  0  0  0  0  0  0999 V2000
   -0.6452  -19.7561    9.9566 O   0  0  0  0  0  0  0  0  0  0  0  0
   -0.8034  -20.3292   11.0045 C   0  0  0  0  0  0  0  0  0  0  0  0
   -2.0311  -21.0110   11.5772 N   0  0  0  0  0  0  0  0  0  0  0  0
   -3.5759  -21.3002   10.8913 S   0  0  0  0  0  0  0  0  0  0  0  0
   -3.5529  -20.6018    9.6237 O   0  0  0  0  0  0  0  0  0  0  0  0
   -3.6728  -22.7525   10.9141 O   0  0  0  0  0  0  0  0  0  0  0  0
   -4.6405  -20.5183   12.1880 C   0  0  0  0  0  0  0  0  0  0  0  0
   -6.5206  -20.2857   12.3879 C   0  0  0  0  0  0  0  0  0  0  0  0
   -7.4016  -21.6906   12.9083 C   0  0  0  0  0  0  0  0  0  0  0  0
   -8.6522  -21.8656   12.0319 C   0  0  0  0  0  0  0  0  0  0  0  0
   -8.7684  -20.5306   11.3485 C   0  0  0  0  0  0  0  0  0  0  0  0
   -7.5307  -19.7705   11.4416 O   0  0  0  0  0  0  0  0  0  0  0  0
    0.4678  -20.3043   11.9167 C   0  0  0  0  0  0  0  0  0  0  0  0
    0.5694  -21.0890   13.0538 C   0  0  0  0  0  0  0  0  0  0  0  0
    1.6293  -21.0368   13.9036 N   0  0  0  0  0  0  0  0  0  0  0  0
    2.6142  -20.1522   13.5870 C   0  0  0  0  0  0  0  0  0  0  0  0
    2.6006  -19.3576   12.4453 C   0  0  0  0  0  0  0  0  0  0  0  0
    3.7371  -18.4695   12.2156 N   0  0  0  0  0  0  0  0  0  0  0  0
    4.7551  -18.1052   13.1006 C   0  0  0  0  0  0  0  0  0  0  0  0
    5.6372  -17.3124   12.4029 C   0  0  0  0  0  0  0  0  0  0  0  0
    5.2238  -17.1780   11.1105 N   0  0  0  0  0  0  0  0  0  0  0  0
    4.0825  -17.8463   11.0322 C   0  0  0  0  0  0  0  0  0  0  0  0
    1.5244  -19.4415   11.5775 N   0  0  0  0  0  0  0  0  0  0  0  0
   -1.7880  -21.4624   12.4451 H   0  0  0  0  0  0  0  0  0  0  0  0
   -4.1168  -19.5931   12.3274 H   0  0  0  0  0  0  0  0  0  0  0  0
   -4.1996  -20.8562   13.0980 H   0  0  0  0  0  0  0  0  0  0  0  0
   -6.3653  -19.2976   12.8143 H   0  0  0  0  0  0  0  0  0  0  0  0
   -7.6594  -21.7752   13.9566 H   0  0  0  0  0  0  0  0  0  0  0  0
   -6.8893  -22.6269   12.8183 H   0  0  0  0  0  0  0  0  0  0  0  0
   -9.5518  -22.1180   12.6068 H   0  0  0  0  0  0  0  0  0  0  0  0
   -8.5413  -22.6908   11.3252 H   0  0  0  0  0  0  0  0  0  0  0  0
   -9.0638  -20.6379   10.3014 H   0  0  0  0  0  0  0  0  0  0  0  0
   -9.5514  -19.9241   11.8060 H   0  0  0  0  0  0  0  0  0  0  0  0
   -0.1699  -21.8187   13.3560 H   0  0  0  0  0  0  0  0  0  0  0  0
    3.4236  -20.1348   14.3072 H   0  0  0  0  0  0  0  0  0  0  0  0
    4.7468  -18.4103   14.1356 H   0  0  0  0  0  0  0  0  0  0  0  0
    6.5449  -16.8434   12.7586 H   0  0  0  0  0  0  0  0  0  0  0  0
    3.4626  -17.9363   10.1485 H   0  0  0  0  0  0  0  0  0  0  0  0
  1  2  2  0
  2  3  1  0
  3  4  1  0
  4  5  2  0
  4  6  2  0
  4  7  1  0
  7  8  1  0
  8  9  1  0
  9 10  1  0
 10 11  1  0
 11 12  1  0
  2 13  1  0
 13 14  2  0
 14 15  1  0
 15 16  2  0
 16 17  1  0
 17 18  1  0
 18 19  1  0
 19 20  2  0
 20 21  1  0
 21 22  2  0
 17 23  2  0
 12  8  1  0
 23 13  1  0
 22 18  1  0
  3 24  1  0
  7 25  1  0
  7 26  1  0
  8 27  1  0
  9 28  1  0
  9 29  1  0
 10 30  1  0
 10 31  1  0
 11 32  1  0
 11 33  1  0
 14 34  1  0
 16 35  1  0
 19 36  1  0
 20 37  1  0
 22 38  1  0
M  END
>  <Energy>  (1149) 
156.57393795198311

>  <compound_id>  (1149) 
6436

>  <target_id>  (1149) 
1

>  <reference_id>  (1149) 
114

>  <inspiration_ids>  (1149) 
[114, 28]

>  <energy_score>  (1149) 
94.98171842149304

>  <distance_score>  (1149) 
12.531821683313504

>  <path>  (1149) 
/opt/xchem-fragalysis-2/maxwin/BulkDock/SCRATCH/511018/C6436-P114/C6436-P114.minimised.mol

>  <scratch_subdir>  (1149) 
/opt/xchem-fragalysis-2/maxwin/BulkDock/SCRATCH/511018/C6436-P114

>  <fragmenstein_runtime>  (1149) 
24.736724853515625

>  <fragmenstein_outcome>  (1149) 
too moved

>  <fragmenstein_mode>  (1149) 
expansion

>  <fragmenstein_error>  (1149) 


$$$$
C6436-P28
     RDKit          3D

 38 40  0  0  0  0  0  0  0  0999 V2000
   -1.0587  -10.5362   13.9334 O   0  0  0  0  0  0  0  0  0  0  0  0
   -0.9464  -10.6301   12.7684 C   0  0  0  0  0  0  0  0  0  0  0  0
   -2.3059  -10.3330   11.6979 N   0  0  0  0  0  0  0  0  0  0  0  0
   -4.4931   -9.8594   12.1016 S   0  0  0  0  0  0  0  0  0  0  0  0
   -4.8488   -8.8924   13.0588 O   0  0  0  0  0  0  0  0  0  0  0  0
   -4.8658   -9.4115   10.7399 O   0  0  0  0  0  0  0  0  0  0  0  0
   -5.3218  -11.4795   12.8340 C   0  0  0  0  0  0  0  0  0  0  0  0
   -6.9824  -12.4368   12.8762 C   0  0  0  0  0  0  0  0  0  0  0  0
   -7.0393  -13.9379   12.4815 C   0  0  0  0  0  0  0  0  0  0  0  0
   -8.3024  -14.4373   13.1496 C   0  0  0  0  0  0  0  0  0  0  0  0
   -8.4926  -13.5369   14.3424 C   0  0  0  0  0  0  0  0  0  0  0  0
   -7.7600  -12.3214   14.1125 O   0  0  0  0  0  0  0  0  0  0  0  0
    0.8647  -10.9696   12.1574 C   0  0  0  0  0  0  0  0  0  0  0  0
    1.2371  -10.5214   10.9939 C   0  0  0  0  0  0  0  0  0  0  0  0
    2.5390  -10.5830   10.7421 N   0  0  0  0  0  0  0  0  0  0  0  0
    3.3163   -9.9411   11.7231 C   0  0  0  0  0  0  0  0  0  0  0  0
    3.7991   -9.8723   13.3287 C   0  0  0  0  0  0  0  0  0  0  0  0
    4.3367   -8.0718   13.8956 N   0  0  0  0  0  0  0  0  0  0  0  0
    5.9670   -7.4676   14.0961 C   0  0  0  0  0  0  0  0  0  0  0  0
    6.2974   -6.5616   15.4019 C   0  0  0  0  0  0  0  0  0  0  0  0
    4.7719   -6.1912   16.0799 N   0  0  0  0  0  0  0  0  0  0  0  0
    3.8024   -6.7484   15.0435 C   0  0  0  0  0  0  0  0  0  0  0  0
    2.2441  -10.7600   13.2848 N   0  0  0  0  0  0  0  0  0  0  0  0
   -1.9604  -10.3856   10.6506 H   0  0  0  0  0  0  0  0  0  0  0  0
   -5.3379  -11.0257   13.8361 H   0  0  0  0  0  0  0  0  0  0  0  0
   -4.6295  -12.1722   12.4829 H   0  0  0  0  0  0  0  0  0  0  0  0
   -7.8019  -12.0742   12.2852 H   0  0  0  0  0  0  0  0  0  0  0  0
   -7.1254  -14.0922   11.4030 H   0  0  0  0  0  0  0  0  0  0  0  0
   -6.1715  -14.5101   12.7853 H   0  0  0  0  0  0  0  0  0  0  0  0
   -9.1513  -14.2969   12.4706 H   0  0  0  0  0  0  0  0  0  0  0  0
   -8.2598  -15.4944   13.4246 H   0  0  0  0  0  0  0  0  0  0  0  0
   -9.5452  -13.2870   14.5055 H   0  0  0  0  0  0  0  0  0  0  0  0
   -8.1124  -13.9954   15.2601 H   0  0  0  0  0  0  0  0  0  0  0  0
    0.6529  -10.0770   10.2180 H   0  0  0  0  0  0  0  0  0  0  0  0
    3.4932   -8.8652   11.5006 H   0  0  0  0  0  0  0  0  0  0  0  0
    6.6427   -7.5801   13.2738 H   0  0  0  0  0  0  0  0  0  0  0  0
    7.1701   -6.1063   15.8280 H   0  0  0  0  0  0  0  0  0  0  0  0
    3.1230   -5.9302   14.8198 H   0  0  0  0  0  0  0  0  0  0  0  0
  1  2  2  0
  2  3  1  0
  3  4  1  0
  4  5  2  0
  4  6  2  0
  4  7  1  0
  7  8  1  0
  8  9  1  0
  9 10  1  0
 10 11  1  0
 11 12  1  0
  2 13  1  0
 13 14  2  0
 14 15  1  0
 15 16  2  0
 16 17  1  0
 17 18  1  0
 18 19  1  0
 19 20  2  0
 20 21  1  0
 21 22  2  0
 17 23  2  0
 12  8  1  0
 23 13  1  0
 22 18  1  0
  3 24  1  0
  7 25  1  0
  7 26  1  0
  8 27  1  0
  9 28  1  0
  9 29  1  0
 10 30  1  0
 10 31  1  0
 11 32  1  0
 11 33  1  0
 14 34  1  0
 16 35  1  0
 19 36  1  0
 20 37  1  0
 22 38  1  0
M  END
>  <Energy>  (1150) 
900.17333704194823

>  <compound_id>  (1150) 
6436

>  <target_id>  (1150) 
1

>  <reference_id>  (1150) 
28

>  <inspiration_ids>  (1150) 
[114, 28]

>  <energy_score>  (1150) 
838.5811175114613

>  <distance_score>  (1150) 
11.730035330987716

>  <path>  (1150) 
/opt/xchem-fragalysis-2/maxwin/BulkDock/SCRATCH/511018/C6436-P28/C6436-P28.minimised.mol

>  <scratch_subdir>  (1150) 
/opt/xchem-fragalysis-2/maxwin/BulkDock/SCRATCH/511018/C6436-P28

>  <fragmenstein_runtime>  (1150) 
18.897680521011353

>  <fragmenstein_outcome>  (1150) 
too moved

>  <fragmenstein_mode>  (1150) 
expansion

>  <fragmenstein_error>  (1150) 


$$$$
C6437-P114
     RDKit          3D

 38 40  0  0  0  0  0  0  0  0999 V2000
   -0.7524  -14.2592   12.2731 O   0  0  0  0  0  0  0  0  0  0  0  0
    0.3307  -14.6366   12.0055 C   0  0  0  0  0  0  0  0  0  0  0  0
    0.7833  -15.8513   11.2196 N   0  0  0  0  0  0  0  0  0  0  0  0
    0.0700  -16.8968   10.6858 C   0  0  0  0  0  0  0  0  0  0  0  0
    0.8079  -18.2062   11.4213 C   0  0  0  0  0  0  0  0  0  0  0  0
    0.3049  -19.6597   11.7411 C   0  0  0  0  0  0  0  0  0  0  0  0
    1.1506  -20.5210   12.6583 C   0  0  0  0  0  0  0  0  0  0  0  0
    0.1634  -21.6189   13.0213 C   0  0  0  0  0  0  0  0  0  0  0  0
   -1.1486  -20.8726   13.1320 C   0  0  0  0  0  0  0  0  0  0  0  0
   -0.9540  -19.6262   12.4388 O   0  0  0  0  0  0  0  0  0  0  0  0
    1.3477  -13.7806   12.6797 C   0  0  0  0  0  0  0  0  0  0  0  0
    2.6267  -12.9658   11.2588 C   0  0  0  0  0  0  0  0  0  0  0  0
    4.4087  -12.8750   11.8025 N   0  0  0  0  0  0  0  0  0  0  0  0
    4.7455  -12.2681   13.6906 C   0  0  0  0  0  0  0  0  0  0  0  0
    3.5072  -12.1335   15.1964 C   0  0  0  0  0  0  0  0  0  0  0  0
    3.4622  -11.5101   16.8911 N   0  0  0  0  0  0  0  0  0  0  0  0
    3.5488  -12.2500   18.2218 C   0  0  0  0  0  0  0  0  0  0  0  0
    3.9263  -11.4015   19.2300 C   0  0  0  0  0  0  0  0  0  0  0  0
    3.9246  -10.1491   18.7672 N   0  0  0  0  0  0  0  0  0  0  0  0
    3.3193  -10.2380   17.5906 C   0  0  0  0  0  0  0  0  0  0  0  0
    1.8122  -13.0798   14.4928 N   0  0  0  0  0  0  0  0  0  0  0  0
    1.7340  -15.8291   11.1107 H   0  0  0  0  0  0  0  0  0  0  0  0
   -0.9342  -16.5479   10.8057 H   0  0  0  0  0  0  0  0  0  0  0  0
    0.3415  -16.9410    9.6248 H   0  0  0  0  0  0  0  0  0  0  0  0
    1.7449  -18.3391   10.8582 H   0  0  0  0  0  0  0  0  0  0  0  0
    1.1423  -17.8331   12.3829 H   0  0  0  0  0  0  0  0  0  0  0  0
    0.1961  -20.2247   10.8050 H   0  0  0  0  0  0  0  0  0  0  0  0
    1.4373  -19.9723   13.5623 H   0  0  0  0  0  0  0  0  0  0  0  0
    2.0554  -20.9007   12.1763 H   0  0  0  0  0  0  0  0  0  0  0  0
    0.1070  -22.3553   12.2108 H   0  0  0  0  0  0  0  0  0  0  0  0
    0.4269  -22.1530   13.9383 H   0  0  0  0  0  0  0  0  0  0  0  0
   -1.9850  -21.4179   12.6865 H   0  0  0  0  0  0  0  0  0  0  0  0
   -1.3793  -20.6446   14.1754 H   0  0  0  0  0  0  0  0  0  0  0  0
    2.6301  -13.0321   10.1706 H   0  0  0  0  0  0  0  0  0  0  0  0
    5.6902  -11.7531   13.6812 H   0  0  0  0  0  0  0  0  0  0  0  0
    3.3557  -13.3128   18.2815 H   0  0  0  0  0  0  0  0  0  0  0  0
    4.1654  -11.6494   20.2554 H   0  0  0  0  0  0  0  0  0  0  0  0
    2.8496   -9.3431   17.2622 H   0  0  0  0  0  0  0  0  0  0  0  0
  1  2  2  0
  2  3  1  0
  3  4  1  0
  4  5  1  0
  5  6  1  0
  6  7  1  0
  7  8  1  0
  8  9  1  0
  9 10  1  0
  2 11  1  0
 11 12  2  0
 12 13  1  0
 13 14  2  0
 14 15  1  0
 15 16  1  0
 16 17  1  0
 17 18  2  0
 18 19  1  0
 19 20  2  0
 15 21  2  0
 10  6  1  0
 21 11  1  0
 20 16  1  0
  3 22  1  0
  4 23  1  0
  4 24  1  0
  5 25  1  0
  5 26  1  0
  6 27  1  0
  7 28  1  0
  7 29  1  0
  8 30  1  0
  8 31  1  0
  9 32  1  0
  9 33  1  0
 12 34  1  0
 14 35  1  0
 17 36  1  0
 18 37  1  0
 20 38  1  0
M  END
>  <Energy>  (1151) 
1112.4043951704436

>  <compound_id>  (1151) 
6437

>  <target_id>  (1151) 
1

>  <reference_id>  (1151) 
114

>  <inspiration_ids>  (1151) 
[114, 28]

>  <energy_score>  (1151) 
973.7398263009333

>  <distance_score>  (1151) 
12.785346844077306

>  <path>  (1151) 
/opt/xchem-fragalysis-2/maxwin/BulkDock/SCRATCH/511018/C6437-P114/C6437-P114.minimised.mol

>  <scratch_subdir>  (1151) 
/opt/xchem-fragalysis-2/maxwin/BulkDock/SCRATCH/511018/C6437-P114

>  <fragmenstein_runtime>  (1151) 
17.952573776245117

>  <fragmenstein_outcome>  (1151) 
too moved

>  <fragmenstein_mode>  (1151) 
expansion

>  <fragmenstein_error>  (1151) 


$$$$
C6437-P28
     RDKit          3D

 38 40  0  0  0  0  0  0  0  0999 V2000
   -0.6809  -15.4016   10.9882 O   0  0  0  0  0  0  0  0  0  0  0  0
   -1.3176  -14.5703   11.6134 C   0  0  0  0  0  0  0  0  0  0  0  0
   -3.1880  -14.5967   11.7971 N   0  0  0  0  0  0  0  0  0  0  0  0
   -4.3411  -15.5814   11.1305 C   0  0  0  0  0  0  0  0  0  0  0  0
   -5.1259  -16.7098   12.3701 C   0  0  0  0  0  0  0  0  0  0  0  0
   -5.2325  -18.4746   12.8587 C   0  0  0  0  0  0  0  0  0  0  0  0
   -4.3170  -20.0015   12.3576 C   0  0  0  0  0  0  0  0  0  0  0  0
   -5.2707  -20.8689   11.5317 C   0  0  0  0  0  0  0  0  0  0  0  0
   -6.6075  -20.2703   11.8326 C   0  0  0  0  0  0  0  0  0  0  0  0
   -6.4508  -18.8728   12.1570 O   0  0  0  0  0  0  0  0  0  0  0  0
   -0.1719  -13.1658   12.4280 C   0  0  0  0  0  0  0  0  0  0  0  0
   -0.0751  -12.2133   11.5567 C   0  0  0  0  0  0  0  0  0  0  0  0
    0.5826  -11.0489   11.1786 N   0  0  0  0  0  0  0  0  0  0  0  0
    1.6917  -10.6569   11.7049 C   0  0  0  0  0  0  0  0  0  0  0  0
    1.8155  -11.0252   13.0166 C   0  0  0  0  0  0  0  0  0  0  0  0
    3.3368  -10.4000   13.9935 N   0  0  0  0  0  0  0  0  0  0  0  0
    4.1314  -11.0085   15.0537 C   0  0  0  0  0  0  0  0  0  0  0  0
    5.1531  -11.3921   14.2205 C   0  0  0  0  0  0  0  0  0  0  0  0
    5.4779  -10.3053   13.6717 N   0  0  0  0  0  0  0  0  0  0  0  0
    4.3781   -9.5976   13.7090 C   0  0  0  0  0  0  0  0  0  0  0  0
    0.8656  -12.5127   13.2906 N   0  0  0  0  0  0  0  0  0  0  0  0
   -3.4773  -13.8592   12.4251 H   0  0  0  0  0  0  0  0  0  0  0  0
   -5.1479  -14.8534   10.9663 H   0  0  0  0  0  0  0  0  0  0  0  0
   -4.0949  -15.9567   10.1250 H   0  0  0  0  0  0  0  0  0  0  0  0
   -6.1861  -16.4584   12.2199 H   0  0  0  0  0  0  0  0  0  0  0  0
   -4.8240  -16.2382   13.3160 H   0  0  0  0  0  0  0  0  0  0  0  0
   -5.5519  -18.4453   13.8345 H   0  0  0  0  0  0  0  0  0  0  0  0
   -3.3944  -19.7926   11.8008 H   0  0  0  0  0  0  0  0  0  0  0  0
   -3.9654  -20.6820   13.1062 H   0  0  0  0  0  0  0  0  0  0  0  0
   -4.9836  -20.8423   10.4791 H   0  0  0  0  0  0  0  0  0  0  0  0
   -5.2573  -21.9391   11.7112 H   0  0  0  0  0  0  0  0  0  0  0  0
   -7.0715  -20.8255   12.6458 H   0  0  0  0  0  0  0  0  0  0  0  0
   -7.3093  -20.3145   11.0041 H   0  0  0  0  0  0  0  0  0  0  0  0
   -0.5248  -12.6984   10.7680 H   0  0  0  0  0  0  0  0  0  0  0  0
    2.4323  -10.1628   11.1317 H   0  0  0  0  0  0  0  0  0  0  0  0
    3.6986  -11.3851   15.9624 H   0  0  0  0  0  0  0  0  0  0  0  0
    5.7717  -12.2538   14.0673 H   0  0  0  0  0  0  0  0  0  0  0  0
    4.3220   -8.5142   13.6101 H   0  0  0  0  0  0  0  0  0  0  0  0
  1  2  2  0
  2  3  1  0
  3  4  1  0
  4  5  1  0
  5  6  1  0
  6  7  1  0
  7  8  1  0
  8  9  1  0
  9 10  1  0
  2 11  1  0
 11 12  2  0
 12 13  1  0
 13 14  2  0
 14 15  1  0
 15 16  1  0
 16 17  1  0
 17 18  2  0
 18 19  1  0
 19 20  2  0
 15 21  2  0
 10  6  1  0
 21 11  1  0
 20 16  1  0
  3 22  1  0
  4 23  1  0
  4 24  1  0
  5 25  1  0
  5 26  1  0
  6 27  1  0
  7 28  1  0
  7 29  1  0
  8 30  1  0
  8 31  1  0
  9 32  1  0
  9 33  1  0
 12 34  1  0
 14 35  1  0
 17 36  1  0
 18 37  1  0
 20 38  1  0
M  END
>  <Energy>  (1152) 
708.56742741528603

>  <compound_id>  (1152) 
6437

>  <target_id>  (1152) 
1

>  <reference_id>  (1152) 
28

>  <inspiration_ids>  (1152) 
[114, 28]

>  <energy_score>  (1152) 
569.9028585457452

>  <distance_score>  (1152) 
10.363206007429339

>  <path>  (1152) 
/opt/xchem-fragalysis-2/maxwin/BulkDock/SCRATCH/511018/C6437-P28/C6437-P28.minimised.mol

>  <scratch_subdir>  (1152) 
/opt/xchem-fragalysis-2/maxwin/BulkDock/SCRATCH/511018/C6437-P28

>  <fragmenstein_runtime>  (1152) 
24.70001220703125

>  <fragmenstein_outcome>  (1152) 
too moved

>  <fragmenstein_mode>  (1152) 
expansion

>  <fragmenstein_error>  (1152) 


$$$$
C6438-P114
     RDKit          3D

 47 48  0  0  0  0  0  0  0  0999 V2000
    2.2401  -13.2590   10.1563 C   0  0  0  0  0  0  0  0  0  0  0  0
    2.7452  -12.7433   11.1932 N   0  0  0  0  0  0  0  0  0  0  0  0
    1.0469  -13.9292   12.1242 C   0  0  0  0  0  0  0  0  0  0  0  0
   -0.3947  -14.8014   13.6879 C   0  0  0  0  0  0  0  0  0  0  0  0
    0.4891  -14.5639   15.4909 O   0  0  0  0  0  0  0  0  0  0  0  0
   -1.9921  -16.1902   14.8202 C   0  0  0  0  0  0  0  0  0  0  0  0
   -3.6267  -17.2468   14.2162 N   0  0  0  0  0  0  0  0  0  0  0  0
   -4.9924  -16.5412   14.5501 C   0  0  0  0  0  0  0  0  0  0  0  0
   -3.9433  -19.0687   13.1683 C   0  0  0  0  0  0  0  0  0  0  0  0
   -3.9640  -18.9454   12.0606 O   0  0  0  0  0  0  0  0  0  0  0  0
   -4.4002  -20.5924   13.4202 C   0  0  0  0  0  0  0  0  0  0  0  0
   -6.0230  -19.8180   12.4703 C   0  0  0  0  0  0  0  0  0  0  0  0
   -7.5220  -20.3418   12.1389 C   0  0  0  0  0  0  0  0  0  0  0  0
   -7.3713  -21.5808   12.9392 C   0  0  0  0  0  0  0  0  0  0  0  0
   -5.9590  -21.4791   12.8623 O   0  0  0  0  0  0  0  0  0  0  0  0
    4.5346  -13.0344   11.7963 C   0  0  0  0  0  0  0  0  0  0  0  0
    5.4092  -13.8077   11.3868 O   0  0  0  0  0  0  0  0  0  0  0  0
    5.2143  -11.7450   13.3125 C   0  0  0  0  0  0  0  0  0  0  0  0
    6.4429  -10.2892   13.7190 C   0  0  0  0  0  0  0  0  0  0  0  0
    8.0087  -10.0328   14.4722 C   0  0  0  0  0  0  0  0  0  0  0  0
    8.4062   -8.7307   14.3686 N   0  0  0  0  0  0  0  0  0  0  0  0
    7.6925   -8.2928   13.3669 C   0  0  0  0  0  0  0  0  0  0  0  0
    6.4939   -8.5280   13.7981 N   0  0  0  0  0  0  0  0  0  0  0  0
    2.5251  -14.3162    9.6910 H   0  0  0  0  0  0  0  0  0  0  0  0
    2.4450  -12.5385    9.3424 H   0  0  0  0  0  0  0  0  0  0  0  0
    3.3310  -13.3488    9.9121 H   0  0  0  0  0  0  0  0  0  0  0  0
    0.3223  -13.1154   11.8957 H   0  0  0  0  0  0  0  0  0  0  0  0
    0.7377  -14.7112   11.3965 H   0  0  0  0  0  0  0  0  0  0  0  0
   -0.8519  -13.8230   13.7993 H   0  0  0  0  0  0  0  0  0  0  0  0
   -0.2278  -14.1584   16.0278 H   0  0  0  0  0  0  0  0  0  0  0  0
   -2.4193  -17.4261   14.6554 H   0  0  0  0  0  0  0  0  0  0  0  0
   -1.6491  -17.6507   15.0886 H   0  0  0  0  0  0  0  0  0  0  0  0
   -5.8807  -17.0456   14.1006 H   0  0  0  0  0  0  0  0  0  0  0  0
   -4.9609  -16.3377   15.6303 H   0  0  0  0  0  0  0  0  0  0  0  0
   -5.1390  -15.8535   13.6564 H   0  0  0  0  0  0  0  0  0  0  0  0
   -3.9183  -20.9944   12.5220 H   0  0  0  0  0  0  0  0  0  0  0  0
   -5.4869  -20.1049   11.6049 H   0  0  0  0  0  0  0  0  0  0  0  0
   -6.1677  -18.7773   12.8387 H   0  0  0  0  0  0  0  0  0  0  0  0
   -7.9143  -20.5229   11.1394 H   0  0  0  0  0  0  0  0  0  0  0  0
   -8.3517  -19.6396   12.1280 H   0  0  0  0  0  0  0  0  0  0  0  0
   -7.7968  -22.4316   12.3831 H   0  0  0  0  0  0  0  0  0  0  0  0
   -7.6926  -21.7998   13.9517 H   0  0  0  0  0  0  0  0  0  0  0  0
    5.7822  -12.5467   13.7837 H   0  0  0  0  0  0  0  0  0  0  0  0
    4.4663  -11.4069   14.0405 H   0  0  0  0  0  0  0  0  0  0  0  0
    8.6636  -10.7628   14.9394 H   0  0  0  0  0  0  0  0  0  0  0  0
    7.8877   -7.6940   12.4941 H   0  0  0  0  0  0  0  0  0  0  0  0
    5.6742   -7.9354   13.6733 H   0  0  0  0  0  0  0  0  0  0  0  0
  1  2  1  0
  2  3  1  0
  3  4  1  0
  4  5  1  0
  4  6  1  0
  6  7  1  0
  7  8  1  0
  7  9  1  0
  9 10  2  0
  9 11  1  0
 11 12  1  0
 12 13  1  0
 13 14  1  0
 14 15  1  0
  2 16  1  0
 16 17  2  0
 16 18  1  0
 18 19  1  0
 19 20  2  0
 20 21  1  0
 21 22  2  0
 22 23  1  0
 15 11  1  0
 23 19  1  0
  1 24  1  0
  1 25  1  0
  1 26  1  0
  3 27  1  0
  3 28  1  0
  4 29  1  0
  5 30  1  0
  6 31  1  0
  6 32  1  0
  8 33  1  0
  8 34  1  0
  8 35  1  0
 11 36  1  0
 12 37  1  0
 12 38  1  0
 13 39  1  0
 13 40  1  0
 14 41  1  0
 14 42  1  0
 18 43  1  0
 18 44  1  0
 20 45  1  0
 22 46  1  0
 23 47  1  0
M  END
>  <Energy>  (1153) 
2446.9307153437057

>  <compound_id>  (1153) 
6438

>  <target_id>  (1153) 
1

>  <reference_id>  (1153) 
114

>  <inspiration_ids>  (1153) 
[114, 28]

>  <energy_score>  (1153) 
2328.215849705979

>  <distance_score>  (1153) 
8.720196334361521

>  <path>  (1153) 
/opt/xchem-fragalysis-2/maxwin/BulkDock/SCRATCH/511018/C6438-P114/C6438-P114.minimised.mol

>  <scratch_subdir>  (1153) 
/opt/xchem-fragalysis-2/maxwin/BulkDock/SCRATCH/511018/C6438-P114

>  <fragmenstein_runtime>  (1153) 
25.34693217277527

>  <fragmenstein_outcome>  (1153) 
too moved

>  <fragmenstein_mode>  (1153) 
expansion

>  <fragmenstein_error>  (1153) 


$$$$
C6438-P28
     RDKit          3D

 47 48  0  0  0  0  0  0  0  0999 V2000
    2.5775  -19.2513   16.9838 C   0  0  0  0  0  0  0  0  0  0  0  0
    3.1378  -17.8545   16.9966 N   0  0  0  0  0  0  0  0  0  0  0  0
    2.5859  -17.9428   15.3305 C   0  0  0  0  0  0  0  0  0  0  0  0
    0.9688  -18.7281   14.4417 C   0  0  0  0  0  0  0  0  0  0  0  0
    1.2044  -18.8180   12.9637 O   0  0  0  0  0  0  0  0  0  0  0  0
   -1.1435  -18.6744   14.6260 C   0  0  0  0  0  0  0  0  0  0  0  0
   -2.0923  -20.1073   13.7215 N   0  0  0  0  0  0  0  0  0  0  0  0
   -2.0008  -18.2661   14.3245 C   0  0  0  0  0  0  0  0  0  0  0  0
   -3.6914  -20.2932   12.6361 C   0  0  0  0  0  0  0  0  0  0  0  0
   -3.4041  -20.1040   11.4671 O   0  0  0  0  0  0  0  0  0  0  0  0
   -5.2593  -20.7538   12.6913 C   0  0  0  0  0  0  0  0  0  0  0  0
   -5.6600  -21.1054   11.2638 C   0  0  0  0  0  0  0  0  0  0  0  0
   -7.1361  -20.6187   11.3739 C   0  0  0  0  0  0  0  0  0  0  0  0
   -7.5404  -21.6691   12.3249 C   0  0  0  0  0  0  0  0  0  0  0  0
   -6.5255  -21.4025   13.2093 O   0  0  0  0  0  0  0  0  0  0  0  0
    2.6020  -16.4495   17.7545 C   0  0  0  0  0  0  0  0  0  0  0  0
    1.5505  -16.3667   18.3665 O   0  0  0  0  0  0  0  0  0  0  0  0
    3.5803  -14.8439   17.9464 C   0  0  0  0  0  0  0  0  0  0  0  0
    4.4971  -13.6035   19.1044 C   0  0  0  0  0  0  0  0  0  0  0  0
    5.2522  -12.3877   19.1954 C   0  0  0  0  0  0  0  0  0  0  0  0
    5.9212  -11.8272   20.2286 N   0  0  0  0  0  0  0  0  0  0  0  0
    6.2669  -12.9665   20.5914 C   0  0  0  0  0  0  0  0  0  0  0  0
    5.3630  -13.8550   20.1333 N   0  0  0  0  0  0  0  0  0  0  0  0
    2.7006  -19.6375   17.9924 H   0  0  0  0  0  0  0  0  0  0  0  0
    1.5151  -19.4263   16.8611 H   0  0  0  0  0  0  0  0  0  0  0  0
    3.1922  -19.9230   16.3702 H   0  0  0  0  0  0  0  0  0  0  0  0
    3.3866  -18.5136   14.8251 H   0  0  0  0  0  0  0  0  0  0  0  0
    2.8572  -16.9314   15.1176 H   0  0  0  0  0  0  0  0  0  0  0  0
    1.3801  -19.7405   14.6201 H   0  0  0  0  0  0  0  0  0  0  0  0
    1.9079  -18.1659   12.7713 H   0  0  0  0  0  0  0  0  0  0  0  0
   -0.9282  -18.6628   15.7457 H   0  0  0  0  0  0  0  0  0  0  0  0
   -0.5663  -19.2401   13.7413 H   0  0  0  0  0  0  0  0  0  0  0  0
   -2.9275  -18.0481   13.7219 H   0  0  0  0  0  0  0  0  0  0  0  0
   -2.6680  -18.3393   15.4176 H   0  0  0  0  0  0  0  0  0  0  0  0
   -2.6968  -17.3165   14.5207 H   0  0  0  0  0  0  0  0  0  0  0  0
   -5.5442  -19.6726   12.6402 H   0  0  0  0  0  0  0  0  0  0  0  0
   -5.1305  -20.7400   10.3962 H   0  0  0  0  0  0  0  0  0  0  0  0
   -5.4993  -22.1938   11.1686 H   0  0  0  0  0  0  0  0  0  0  0  0
   -7.7798  -20.4756   10.5156 H   0  0  0  0  0  0  0  0  0  0  0  0
   -7.1833  -19.6443   11.8413 H   0  0  0  0  0  0  0  0  0  0  0  0
   -7.3555  -22.7234   12.1286 H   0  0  0  0  0  0  0  0  0  0  0  0
   -8.5630  -21.6519   12.6902 H   0  0  0  0  0  0  0  0  0  0  0  0
    3.0961  -14.9534   18.9408 H   0  0  0  0  0  0  0  0  0  0  0  0
    2.7623  -14.1925   17.6372 H   0  0  0  0  0  0  0  0  0  0  0  0
    5.5401  -11.7117   18.4545 H   0  0  0  0  0  0  0  0  0  0  0  0
    7.1844  -13.1338   21.1304 H   0  0  0  0  0  0  0  0  0  0  0  0
    5.4088  -14.8116   20.3180 H   0  0  0  0  0  0  0  0  0  0  0  0
  1  2  1  0
  2  3  1  0
  3  4  1  0
  4  5  1  0
  4  6  1  0
  6  7  1  0
  7  8  1  0
  7  9  1  0
  9 10  2  0
  9 11  1  0
 11 12  1  0
 12 13  1  0
 13 14  1  0
 14 15  1  0
  2 16  1  0
 16 17  2  0
 16 18  1  0
 18 19  1  0
 19 20  2  0
 20 21  1  0
 21 22  2  0
 22 23  1  0
 15 11  1  0
 23 19  1  0
  1 24  1  0
  1 25  1  0
  1 26  1  0
  3 27  1  0
  3 28  1  0
  4 29  1  0
  5 30  1  0
  6 31  1  0
  6 32  1  0
  8 33  1  0
  8 34  1  0
  8 35  1  0
 11 36  1  0
 12 37  1  0
 12 38  1  0
 13 39  1  0
 13 40  1  0
 14 41  1  0
 14 42  1  0
 18 43  1  0
 18 44  1  0
 20 45  1  0
 22 46  1  0
 23 47  1  0
M  END
>  <Energy>  (1154) 
1502.6054581613146

>  <compound_id>  (1154) 
6438

>  <target_id>  (1154) 
1

>  <reference_id>  (1154) 
28

>  <inspiration_ids>  (1154) 
[114, 28]

>  <energy_score>  (1154) 
1383.8905925235572

>  <distance_score>  (1154) 
10.905212383851689

>  <path>  (1154) 
/opt/xchem-fragalysis-2/maxwin/BulkDock/SCRATCH/511018/C6438-P28/C6438-P28.minimised.mol

>  <scratch_subdir>  (1154) 
/opt/xchem-fragalysis-2/maxwin/BulkDock/SCRATCH/511018/C6438-P28

>  <fragmenstein_runtime>  (1154) 
25.563839435577393

>  <fragmenstein_outcome>  (1154) 
too moved

>  <fragmenstein_mode>  (1154) 
expansion

>  <fragmenstein_error>  (1154) 


$$$$
C6439-P114
     RDKit          3D

 50 51  0  0  0  0  0  0  0  0999 V2000
    1.0819  -10.5412   11.3233 C   0  0  0  0  0  0  0  0  0  0  0  0
    2.2102  -11.3100   11.8159 N   0  0  0  0  0  0  0  0  0  0  0  0
    0.4223  -12.4088   12.1923 C   0  0  0  0  0  0  0  0  0  0  0  0
   -0.9978  -14.0254   11.7934 C   0  0  0  0  0  0  0  0  0  0  0  0
   -0.2977  -15.1059   11.1133 O   0  0  0  0  0  0  0  0  0  0  0  0
   -3.1463  -14.7121   11.9005 C   0  0  0  0  0  0  0  0  0  0  0  0
   -5.2429  -14.9248   12.1675 N   0  0  0  0  0  0  0  0  0  0  0  0
   -6.1178  -13.7855   12.5770 C   0  0  0  0  0  0  0  0  0  0  0  0
   -6.0118  -16.1260   11.9754 C   0  0  0  0  0  0  0  0  0  0  0  0
   -6.4204  -16.2457   10.8186 O   0  0  0  0  0  0  0  0  0  0  0  0
   -6.4362  -17.1158   13.0125 C   0  0  0  0  0  0  0  0  0  0  0  0
   -5.8444  -18.4648   13.2336 C   0  0  0  0  0  0  0  0  0  0  0  0
   -6.2377  -19.7902   12.4592 C   0  0  0  0  0  0  0  0  0  0  0  0
   -7.3250  -19.2561   11.7993 C   0  0  0  0  0  0  0  0  0  0  0  0
   -7.6328  -17.6816   12.6953 O   0  0  0  0  0  0  0  0  0  0  0  0
    3.6555  -10.6651   13.0802 C   0  0  0  0  0  0  0  0  0  0  0  0
    3.7695   -9.6227   13.6835 O   0  0  0  0  0  0  0  0  0  0  0  0
    5.1658  -11.6530   13.3611 C   0  0  0  0  0  0  0  0  0  0  0  0
    6.8384  -11.2849   13.2608 C   0  0  0  0  0  0  0  0  0  0  0  0
    7.8150  -12.3593   13.0749 C   0  0  0  0  0  0  0  0  0  0  0  0
    9.1026  -11.9944   13.3614 N   0  0  0  0  0  0  0  0  0  0  0  0
    8.9804  -10.7976   13.8681 C   0  0  0  0  0  0  0  0  0  0  0  0
    7.7426  -10.2056   13.6120 N   0  0  0  0  0  0  0  0  0  0  0  0
    7.6099   -8.7467   13.6720 C   0  0  0  0  0  0  0  0  0  0  0  0
    0.3263  -10.9765   10.7238 H   0  0  0  0  0  0  0  0  0  0  0  0
    0.4528  -10.1068   12.0468 H   0  0  0  0  0  0  0  0  0  0  0  0
    1.4840   -9.7573   10.7080 H   0  0  0  0  0  0  0  0  0  0  0  0
   -0.3722  -11.6830   12.3214 H   0  0  0  0  0  0  0  0  0  0  0  0
    0.6719  -12.7695   11.2166 H   0  0  0  0  0  0  0  0  0  0  0  0
   -0.6171  -14.3313   12.7959 H   0  0  0  0  0  0  0  0  0  0  0  0
   -0.9611  -15.5991   10.6084 H   0  0  0  0  0  0  0  0  0  0  0  0
   -3.1782  -14.9995   10.8376 H   0  0  0  0  0  0  0  0  0  0  0  0
   -3.5210  -14.1665   12.7755 H   0  0  0  0  0  0  0  0  0  0  0  0
   -5.9767  -12.7419   12.2606 H   0  0  0  0  0  0  0  0  0  0  0  0
   -6.9018  -14.0320   13.2923 H   0  0  0  0  0  0  0  0  0  0  0  0
   -6.8802  -13.8981   11.7652 H   0  0  0  0  0  0  0  0  0  0  0  0
   -6.5942  -16.5238   13.8953 H   0  0  0  0  0  0  0  0  0  0  0  0
   -4.8325  -18.6061   13.4921 H   0  0  0  0  0  0  0  0  0  0  0  0
   -6.3018  -18.6133   14.1037 H   0  0  0  0  0  0  0  0  0  0  0  0
   -6.7612  -20.6863   12.8722 H   0  0  0  0  0  0  0  0  0  0  0  0
   -5.2822  -20.2611   12.1528 H   0  0  0  0  0  0  0  0  0  0  0  0
   -7.0695  -18.9754   10.8203 H   0  0  0  0  0  0  0  0  0  0  0  0
   -8.2830  -19.8095   11.7753 H   0  0  0  0  0  0  0  0  0  0  0  0
    5.0887  -11.2513   14.3744 H   0  0  0  0  0  0  0  0  0  0  0  0
    5.1574  -12.6538   13.7297 H   0  0  0  0  0  0  0  0  0  0  0  0
    7.5771  -13.3804   12.8082 H   0  0  0  0  0  0  0  0  0  0  0  0
    9.7503  -10.2972   14.4320 H   0  0  0  0  0  0  0  0  0  0  0  0
    6.6305   -8.3301   13.9056 H   0  0  0  0  0  0  0  0  0  0  0  0
    7.8258   -8.3457   12.6800 H   0  0  0  0  0  0  0  0  0  0  0  0
    8.2672   -8.3718   14.4650 H   0  0  0  0  0  0  0  0  0  0  0  0
  1  2  1  0
  2  3  1  0
  3  4  1  0
  4  5  1  0
  4  6  1  0
  6  7  1  0
  7  8  1  0
  7  9  1  0
  9 10  2  0
  9 11  1  0
 11 12  1  0
 12 13  1  0
 13 14  1  0
 14 15  1  0
  2 16  1  0
 16 17  2  0
 16 18  1  0
 18 19  1  0
 19 20  2  0
 20 21  1  0
 21 22  2  0
 22 23  1  0
 23 24  1  0
 15 11  1  0
 23 19  1  0
  1 25  1  0
  1 26  1  0
  1 27  1  0
  3 28  1  0
  3 29  1  0
  4 30  1  0
  5 31  1  0
  6 32  1  0
  6 33  1  0
  8 34  1  0
  8 35  1  0
  8 36  1  0
 11 37  1  0
 12 38  1  0
 12 39  1  0
 13 40  1  0
 13 41  1  0
 14 42  1  0
 14 43  1  0
 18 44  1  0
 18 45  1  0
 20 46  1  0
 22 47  1  0
 24 48  1  0
 24 49  1  0
 24 50  1  0
M  END
>  <Energy>  (1155) 
1307.5382768811025

>  <compound_id>  (1155) 
6439

>  <target_id>  (1155) 
1

>  <reference_id>  (1155) 
114

>  <inspiration_ids>  (1155) 
[114, 28]

>  <energy_score>  (1155) 
1182.75021698371

>  <distance_score>  (1155) 
9.798097575195582

>  <path>  (1155) 
/opt/xchem-fragalysis-2/maxwin/BulkDock/SCRATCH/511018/C6439-P114/C6439-P114.minimised.mol

>  <scratch_subdir>  (1155) 
/opt/xchem-fragalysis-2/maxwin/BulkDock/SCRATCH/511018/C6439-P114

>  <fragmenstein_runtime>  (1155) 
24.40318512916565

>  <fragmenstein_outcome>  (1155) 
too moved

>  <fragmenstein_mode>  (1155) 
expansion

>  <fragmenstein_error>  (1155) 


$$$$
C6439-P28
     RDKit          3D

 50 51  0  0  0  0  0  0  0  0999 V2000
   -0.5062  -21.6708   16.8224 C   0  0  0  0  0  0  0  0  0  0  0  0
    0.5098  -20.7854   16.2292 N   0  0  0  0  0  0  0  0  0  0  0  0
   -0.8644  -19.9416   15.7561 C   0  0  0  0  0  0  0  0  0  0  0  0
   -1.8786  -19.1455   16.7924 C   0  0  0  0  0  0  0  0  0  0  0  0
   -2.3196  -20.0104   17.8723 O   0  0  0  0  0  0  0  0  0  0  0  0
   -3.3712  -18.2811   16.3103 C   0  0  0  0  0  0  0  0  0  0  0  0
   -3.8893  -17.8644   14.5641 N   0  0  0  0  0  0  0  0  0  0  0  0
   -3.5747  -16.5482   14.5333 C   0  0  0  0  0  0  0  0  0  0  0  0
   -4.6544  -18.9971   13.2184 C   0  0  0  0  0  0  0  0  0  0  0  0
   -3.8323  -19.5627   12.4905 O   0  0  0  0  0  0  0  0  0  0  0  0
   -6.3141  -19.3573   12.6096 C   0  0  0  0  0  0  0  0  0  0  0  0
   -6.6532  -19.9548   11.2448 C   0  0  0  0  0  0  0  0  0  0  0  0
   -8.0720  -20.4714   11.3751 C   0  0  0  0  0  0  0  0  0  0  0  0
   -7.7481  -21.5302   12.3262 C   0  0  0  0  0  0  0  0  0  0  0  0
   -6.9398  -20.7163   13.1188 O   0  0  0  0  0  0  0  0  0  0  0  0
    1.4721  -19.8859   16.8585 C   0  0  0  0  0  0  0  0  0  0  0  0
    1.6113  -19.5772   18.0173 O   0  0  0  0  0  0  0  0  0  0  0  0
    2.5428  -19.3448   15.8089 C   0  0  0  0  0  0  0  0  0  0  0  0
    3.5868  -18.1940   16.1354 C   0  0  0  0  0  0  0  0  0  0  0  0
    4.5270  -17.6908   15.2295 C   0  0  0  0  0  0  0  0  0  0  0  0
    5.3411  -16.7250   15.7671 N   0  0  0  0  0  0  0  0  0  0  0  0
    4.9194  -16.6061   17.0000 C   0  0  0  0  0  0  0  0  0  0  0  0
    3.8697  -17.4550   17.2745 N   0  0  0  0  0  0  0  0  0  0  0  0
    3.3027  -17.5458   18.5956 C   0  0  0  0  0  0  0  0  0  0  0  0
    0.0691  -22.5991   16.9683 H   0  0  0  0  0  0  0  0  0  0  0  0
   -0.7083  -21.4018   17.8604 H   0  0  0  0  0  0  0  0  0  0  0  0
   -1.3548  -22.0417   16.2343 H   0  0  0  0  0  0  0  0  0  0  0  0
   -0.4679  -19.1931   15.0693 H   0  0  0  0  0  0  0  0  0  0  0  0
   -1.4175  -20.5870   15.0596 H   0  0  0  0  0  0  0  0  0  0  0  0
   -1.2545  -18.4496   17.3485 H   0  0  0  0  0  0  0  0  0  0  0  0
   -2.7253  -19.4604   18.5647 H   0  0  0  0  0  0  0  0  0  0  0  0
   -4.1670  -18.7840   16.8756 H   0  0  0  0  0  0  0  0  0  0  0  0
   -3.4400  -17.3515   16.9019 H   0  0  0  0  0  0  0  0  0  0  0  0
   -2.5805  -16.4459   14.7509 H   0  0  0  0  0  0  0  0  0  0  0  0
   -4.0014  -15.9312   13.7583 H   0  0  0  0  0  0  0  0  0  0  0  0
   -4.0066  -16.2369   15.4852 H   0  0  0  0  0  0  0  0  0  0  0  0
   -6.7553  -18.3441   12.5414 H   0  0  0  0  0  0  0  0  0  0  0  0
   -5.9094  -20.7271   10.9931 H   0  0  0  0  0  0  0  0  0  0  0  0
   -6.7106  -19.2740   10.4253 H   0  0  0  0  0  0  0  0  0  0  0  0
   -8.7503  -19.7493   11.8333 H   0  0  0  0  0  0  0  0  0  0  0  0
   -8.5687  -20.6606   10.4413 H   0  0  0  0  0  0  0  0  0  0  0  0
   -7.0869  -22.3564   12.0650 H   0  0  0  0  0  0  0  0  0  0  0  0
   -8.6019  -21.9670   12.8541 H   0  0  0  0  0  0  0  0  0  0  0  0
    2.0394  -19.0973   14.8670 H   0  0  0  0  0  0  0  0  0  0  0  0
    3.1660  -20.2240   15.5869 H   0  0  0  0  0  0  0  0  0  0  0  0
    4.6377  -17.9987   14.1957 H   0  0  0  0  0  0  0  0  0  0  0  0
    5.3336  -15.9386   17.7434 H   0  0  0  0  0  0  0  0  0  0  0  0
    2.2401  -17.3071   18.5461 H   0  0  0  0  0  0  0  0  0  0  0  0
    3.7827  -16.8122   19.2510 H   0  0  0  0  0  0  0  0  0  0  0  0
    3.5017  -18.5415   18.9958 H   0  0  0  0  0  0  0  0  0  0  0  0
  1  2  1  0
  2  3  1  0
  3  4  1  0
  4  5  1  0
  4  6  1  0
  6  7  1  0
  7  8  1  0
  7  9  1  0
  9 10  2  0
  9 11  1  0
 11 12  1  0
 12 13  1  0
 13 14  1  0
 14 15  1  0
  2 16  1  0
 16 17  2  0
 16 18  1  0
 18 19  1  0
 19 20  2  0
 20 21  1  0
 21 22  2  0
 22 23  1  0
 23 24  1  0
 15 11  1  0
 23 19  1  0
  1 25  1  0
  1 26  1  0
  1 27  1  0
  3 28  1  0
  3 29  1  0
  4 30  1  0
  5 31  1  0
  6 32  1  0
  6 33  1  0
  8 34  1  0
  8 35  1  0
  8 36  1  0
 11 37  1  0
 12 38  1  0
 12 39  1  0
 13 40  1  0
 13 41  1  0
 14 42  1  0
 14 43  1  0
 18 44  1  0
 18 45  1  0
 20 46  1  0
 22 47  1  0
 24 48  1  0
 24 49  1  0
 24 50  1  0
M  END
>  <Energy>  (1156) 
499.84872122964566

>  <compound_id>  (1156) 
6439

>  <target_id>  (1156) 
1

>  <reference_id>  (1156) 
28

>  <inspiration_ids>  (1156) 
[114, 28]

>  <energy_score>  (1156) 
375.0606613322393

>  <distance_score>  (1156) 
13.089863471347474

>  <path>  (1156) 
/opt/xchem-fragalysis-2/maxwin/BulkDock/SCRATCH/511018/C6439-P28/C6439-P28.minimised.mol

>  <scratch_subdir>  (1156) 
/opt/xchem-fragalysis-2/maxwin/BulkDock/SCRATCH/511018/C6439-P28

>  <fragmenstein_runtime>  (1156) 
30.636921167373657

>  <fragmenstein_outcome>  (1156) 
too moved

>  <fragmenstein_mode>  (1156) 
expansion

>  <fragmenstein_error>  (1156) 


$$$$
C6440-P114
     RDKit          3D

 30 31  0  0  0  0  0  0  0  0999 V2000
    0.3366   -4.8641   11.7676 C   0  0  0  0  0  0  0  0  0  0  0  0
    0.4301   -6.3247   12.0879 N   0  0  0  0  0  0  0  0  0  0  0  0
    1.9361   -6.0004   12.1024 C   0  0  0  0  0  0  0  0  0  0  0  0
    2.6426   -5.0346   13.0362 C   0  0  0  0  0  0  0  0  0  0  0  0
    2.8169   -4.9929   14.4062 C   0  0  0  0  0  0  0  0  0  0  0  0
    3.6354   -3.9492   14.7767 N   0  0  0  0  0  0  0  0  0  0  0  0
    3.9619   -3.3471   13.6581 C   0  0  0  0  0  0  0  0  0  0  0  0
    3.4148   -3.9808   12.5785 N   0  0  0  0  0  0  0  0  0  0  0  0
   -0.4729   -6.6557   13.1644 C   0  0  0  0  0  0  0  0  0  0  0  0
   -0.2961   -6.6730   14.3568 O   0  0  0  0  0  0  0  0  0  0  0  0
   -1.9121   -7.0125   12.5676 C   0  0  0  0  0  0  0  0  0  0  0  0
   -2.8815   -7.6096   13.5900 C   0  0  0  0  0  0  0  0  0  0  0  0
   -4.0658   -7.9837   12.7206 C   0  0  0  0  0  0  0  0  0  0  0  0
   -3.4220   -8.3343   11.3915 C   0  0  0  0  0  0  0  0  0  0  0  0
   -2.0409   -7.9144   11.4567 O   0  0  0  0  0  0  0  0  0  0  0  0
   -0.7094   -4.7143   11.4608 H   0  0  0  0  0  0  0  0  0  0  0  0
    0.8836   -4.5124   10.8789 H   0  0  0  0  0  0  0  0  0  0  0  0
    0.4135   -4.2107   12.6480 H   0  0  0  0  0  0  0  0  0  0  0  0
    2.3060   -5.9126   11.0663 H   0  0  0  0  0  0  0  0  0  0  0  0
    2.3454   -6.9769   12.4097 H   0  0  0  0  0  0  0  0  0  0  0  0
    2.3956   -5.6666   15.1436 H   0  0  0  0  0  0  0  0  0  0  0  0
    4.5977   -2.4768   13.5568 H   0  0  0  0  0  0  0  0  0  0  0  0
    3.5598   -3.7104   11.6153 H   0  0  0  0  0  0  0  0  0  0  0  0
   -2.3247   -6.0485   12.2377 H   0  0  0  0  0  0  0  0  0  0  0  0
   -3.1473   -6.9010   14.3800 H   0  0  0  0  0  0  0  0  0  0  0  0
   -2.4410   -8.4910   14.0655 H   0  0  0  0  0  0  0  0  0  0  0  0
   -4.7014   -8.7694   13.1346 H   0  0  0  0  0  0  0  0  0  0  0  0
   -4.7114   -7.1066   12.5856 H   0  0  0  0  0  0  0  0  0  0  0  0
   -3.9036   -7.7881   10.5730 H   0  0  0  0  0  0  0  0  0  0  0  0
   -3.4648   -9.3915   11.1361 H   0  0  0  0  0  0  0  0  0  0  0  0
  1  2  1  0
  2  3  1  0
  3  4  1  0
  4  5  2  0
  5  6  1  0
  6  7  2  0
  7  8  1  0
  2  9  1  0
  9 10  2  0
  9 11  1  0
 11 12  1  0
 12 13  1  0
 13 14  1  0
 14 15  1  0
  8  4  1  0
 15 11  1  0
  1 16  1  0
  1 17  1  0
  1 18  1  0
  3 19  1  0
  3 20  1  0
  5 21  1  0
  7 22  1  0
  8 23  1  0
 11 24  1  0
 12 25  1  0
 12 26  1  0
 13 27  1  0
 13 28  1  0
 14 29  1  0
 14 30  1  0
M  END
>  <Energy>  (1157) 
102.12354387568233

>  <compound_id>  (1157) 
6440

>  <target_id>  (1157) 
1

>  <reference_id>  (1157) 
114

>  <inspiration_ids>  (1157) 
[114, 28]

>  <energy_score>  (1157) 
50.536521478596114

>  <distance_score>  (1157) 
15.393829441820293

>  <path>  (1157) 
/opt/xchem-fragalysis-2/maxwin/BulkDock/SCRATCH/511018/C6440-P114/C6440-P114.minimised.mol

>  <scratch_subdir>  (1157) 
/opt/xchem-fragalysis-2/maxwin/BulkDock/SCRATCH/511018/C6440-P114

>  <fragmenstein_runtime>  (1157) 
13.535243511199951

>  <fragmenstein_outcome>  (1157) 
too moved

>  <fragmenstein_mode>  (1157) 
expansion

>  <fragmenstein_error>  (1157) 


$$$$
C6440-P28
     RDKit          3D

 30 31  0  0  0  0  0  0  0  0999 V2000
   -0.9974   -9.9874   12.5829 C   0  0  0  0  0  0  0  0  0  0  0  0
   -0.5327  -11.3377   12.0064 N   0  0  0  0  0  0  0  0  0  0  0  0
    0.3204  -10.3335   11.1296 C   0  0  0  0  0  0  0  0  0  0  0  0
    1.4076   -9.1885   11.3482 C   0  0  0  0  0  0  0  0  0  0  0  0
    2.8008   -9.2230   11.2573 C   0  0  0  0  0  0  0  0  0  0  0  0
    3.3781   -7.9939   11.4638 N   0  0  0  0  0  0  0  0  0  0  0  0
    2.3700   -7.1684   11.5848 C   0  0  0  0  0  0  0  0  0  0  0  0
    1.1715   -7.8210   11.4490 N   0  0  0  0  0  0  0  0  0  0  0  0
   -0.0817  -12.4426   13.1900 C   0  0  0  0  0  0  0  0  0  0  0  0
    1.0486  -12.4935   13.5612 O   0  0  0  0  0  0  0  0  0  0  0  0
   -1.2056  -13.7193   14.2820 C   0  0  0  0  0  0  0  0  0  0  0  0
   -1.0384  -13.8472   16.2955 C   0  0  0  0  0  0  0  0  0  0  0  0
   -2.2344  -13.8166   17.1795 C   0  0  0  0  0  0  0  0  0  0  0  0
   -3.2335  -14.6182   16.4353 C   0  0  0  0  0  0  0  0  0  0  0  0
   -2.6124  -14.7894   14.8664 O   0  0  0  0  0  0  0  0  0  0  0  0
   -1.3056  -10.0483   13.6226 H   0  0  0  0  0  0  0  0  0  0  0  0
   -0.4279   -9.0631   12.5821 H   0  0  0  0  0  0  0  0  0  0  0  0
   -1.8194   -9.6545   11.9257 H   0  0  0  0  0  0  0  0  0  0  0  0
   -0.2528  -10.0644   10.2479 H   0  0  0  0  0  0  0  0  0  0  0  0
    1.1155  -11.0598   11.0516 H   0  0  0  0  0  0  0  0  0  0  0  0
    3.4167  -10.0827   11.0363 H   0  0  0  0  0  0  0  0  0  0  0  0
    2.4356   -6.1001   11.7448 H   0  0  0  0  0  0  0  0  0  0  0  0
    0.2683   -7.3683   11.4567 H   0  0  0  0  0  0  0  0  0  0  0  0
   -0.9013  -14.2651   13.3326 H   0  0  0  0  0  0  0  0  0  0  0  0
   -0.5546  -13.1476   17.0014 H   0  0  0  0  0  0  0  0  0  0  0  0
   -0.1692  -14.3675   16.5609 H   0  0  0  0  0  0  0  0  0  0  0  0
   -1.8695  -14.2905   18.0895 H   0  0  0  0  0  0  0  0  0  0  0  0
   -2.5184  -12.8266   17.5413 H   0  0  0  0  0  0  0  0  0  0  0  0
   -3.9372  -15.4727   16.4764 H   0  0  0  0  0  0  0  0  0  0  0  0
   -2.9935  -15.5022   17.0351 H   0  0  0  0  0  0  0  0  0  0  0  0
  1  2  1  0
  2  3  1  0
  3  4  1  0
  4  5  2  0
  5  6  1  0
  6  7  2  0
  7  8  1  0
  2  9  1  0
  9 10  2  0
  9 11  1  0
 11 12  1  0
 12 13  1  0
 13 14  1  0
 14 15  1  0
  8  4  1  0
 15 11  1  0
  1 16  1  0
  1 17  1  0
  1 18  1  0
  3 19  1  0
  3 20  1  0
  5 21  1  0
  7 22  1  0
  8 23  1  0
 11 24  1  0
 12 25  1  0
 12 26  1  0
 13 27  1  0
 13 28  1  0
 14 29  1  0
 14 30  1  0
M  END
>  <Energy>  (1158) 
546.37401253278608

>  <compound_id>  (1158) 
6440

>  <target_id>  (1158) 
1

>  <reference_id>  (1158) 
28

>  <inspiration_ids>  (1158) 
[114, 28]

>  <energy_score>  (1158) 
494.7869901356959

>  <distance_score>  (1158) 
13.839403726362509

>  <path>  (1158) 
/opt/xchem-fragalysis-2/maxwin/BulkDock/SCRATCH/511018/C6440-P28/C6440-P28.minimised.mol

>  <scratch_subdir>  (1158) 
/opt/xchem-fragalysis-2/maxwin/BulkDock/SCRATCH/511018/C6440-P28

>  <fragmenstein_runtime>  (1158) 
15.257422685623169

>  <fragmenstein_outcome>  (1158) 
too moved

>  <fragmenstein_mode>  (1158) 
expansion

>  <fragmenstein_error>  (1158) 


$$$$
C6452-P114
     RDKit          3D

 49 50  0  0  0  0  0  0  0  0999 V2000
    6.4030   -6.0785   21.0170 C   0  0  0  0  0  0  0  0  0  0  0  0
    6.6964   -7.2047   20.0358 C   0  0  0  0  0  0  0  0  0  0  0  0
    5.6689   -7.2918   18.9078 C   0  0  0  0  0  0  0  0  0  0  0  0
    4.6999   -8.3263   18.5832 N   0  0  0  0  0  0  0  0  0  0  0  0
    3.2167   -7.7346   18.0000 C   0  0  0  0  0  0  0  0  0  0  0  0
    1.8305   -8.8818   17.3090 C   0  0  0  0  0  0  0  0  0  0  0  0
    2.0187   -9.9403   17.7203 O   0  0  0  0  0  0  0  0  0  0  0  0
    0.3390   -8.7809   15.9203 N   0  0  0  0  0  0  0  0  0  0  0  0
   -0.6864   -9.7773   15.4657 C   0  0  0  0  0  0  0  0  0  0  0  0
   -0.7476  -10.4750   14.8529 C   0  0  0  0  0  0  0  0  0  0  0  0
    0.7580  -11.9754   14.2352 C   0  0  0  0  0  0  0  0  0  0  0  0
   -1.2109  -12.4772   13.8252 C   0  0  0  0  0  0  0  0  0  0  0  0
   -3.0981  -13.8239   13.5694 C   0  0  0  0  0  0  0  0  0  0  0  0
   -4.7617  -14.4462   12.9326 N   0  0  0  0  0  0  0  0  0  0  0  0
   -6.1424  -13.6092   12.4537 C   0  0  0  0  0  0  0  0  0  0  0  0
   -6.3338  -12.4188   12.3300 O   0  0  0  0  0  0  0  0  0  0  0  0
   -7.2698  -14.5599   12.2803 C   0  0  0  0  0  0  0  0  0  0  0  0
   -6.7530  -15.7936   11.6774 C   0  0  0  0  0  0  0  0  0  0  0  0
   -7.0053  -16.7505   12.7973 C   0  0  0  0  0  0  0  0  0  0  0  0
   -8.2712  -16.2119   13.4506 C   0  0  0  0  0  0  0  0  0  0  0  0
   -8.5343  -14.9133   12.8136 O   0  0  0  0  0  0  0  0  0  0  0  0
    4.4716   -6.7112   17.2880 C   0  0  0  0  0  0  0  0  0  0  0  0
    5.4866   -6.2992   18.0634 N   0  0  0  0  0  0  0  0  0  0  0  0
    5.4737   -6.2574   21.5655 H   0  0  0  0  0  0  0  0  0  0  0  0
    6.3087   -5.1152   20.5102 H   0  0  0  0  0  0  0  0  0  0  0  0
    7.2119   -5.9983   21.7502 H   0  0  0  0  0  0  0  0  0  0  0  0
    6.7666   -8.1392   20.5948 H   0  0  0  0  0  0  0  0  0  0  0  0
    7.6932   -7.0613   19.6122 H   0  0  0  0  0  0  0  0  0  0  0  0
   -0.7182   -8.9465   16.3905 H   0  0  0  0  0  0  0  0  0  0  0  0
   -1.4470   -9.0006   14.5091 H   0  0  0  0  0  0  0  0  0  0  0  0
   -1.4948   -9.6591   16.5926 H   0  0  0  0  0  0  0  0  0  0  0  0
   -1.1696  -10.1601   13.6750 H   0  0  0  0  0  0  0  0  0  0  0  0
    1.4248  -12.5053   14.9551 H   0  0  0  0  0  0  0  0  0  0  0  0
    0.6275  -12.7069   13.4253 H   0  0  0  0  0  0  0  0  0  0  0  0
    1.5399  -11.5121   13.5812 H   0  0  0  0  0  0  0  0  0  0  0  0
   -0.6800  -13.4725   13.9039 H   0  0  0  0  0  0  0  0  0  0  0  0
   -0.7899  -12.1349   12.7907 H   0  0  0  0  0  0  0  0  0  0  0  0
   -3.8247  -13.1113   13.4735 H   0  0  0  0  0  0  0  0  0  0  0  0
   -3.1630  -14.3476   12.4393 H   0  0  0  0  0  0  0  0  0  0  0  0
   -4.9628  -15.4097   13.0066 H   0  0  0  0  0  0  0  0  0  0  0  0
   -7.0572  -14.5194   13.3349 H   0  0  0  0  0  0  0  0  0  0  0  0
   -5.8090  -15.7350   11.1985 H   0  0  0  0  0  0  0  0  0  0  0  0
   -7.2302  -15.9279   10.7497 H   0  0  0  0  0  0  0  0  0  0  0  0
   -6.2424  -16.7032   13.5628 H   0  0  0  0  0  0  0  0  0  0  0  0
   -6.9510  -17.7840   12.5065 H   0  0  0  0  0  0  0  0  0  0  0  0
   -9.1348  -16.8675   13.3539 H   0  0  0  0  0  0  0  0  0  0  0  0
   -8.0858  -15.9764   14.4998 H   0  0  0  0  0  0  0  0  0  0  0  0
    4.3837   -6.2728   16.3104 H   0  0  0  0  0  0  0  0  0  0  0  0
    6.1863   -5.6121   17.8764 H   0  0  0  0  0  0  0  0  0  0  0  0
  1  2  1  0
  2  3  1  0
  3  4  2  0
  4  5  1  0
  5  6  1  0
  6  7  2  0
  6  8  1  0
  8  9  1  0
  8 10  1  0
 10 11  1  0
 10 12  1  0
 12 13  1  0
 13 14  1  0
 14 15  1  0
 15 16  2  0
 15 17  1  0
 17 18  1  0
 18 19  1  0
 19 20  1  0
 20 21  1  0
  5 22  2  0
 22 23  1  0
 23  3  1  0
 21 17  1  0
  1 24  1  0
  1 25  1  0
  1 26  1  0
  2 27  1  0
  2 28  1  0
  9 29  1  0
  9 30  1  0
  9 31  1  0
 10 32  1  0
 11 33  1  0
 11 34  1  0
 11 35  1  0
 12 36  1  0
 12 37  1  0
 13 38  1  0
 13 39  1  0
 14 40  1  0
 17 41  1  0
 18 42  1  0
 18 43  1  0
 19 44  1  0
 19 45  1  0
 20 46  1  0
 20 47  1  0
 22 48  1  0
 23 49  1  0
M  END
>  <Energy>  (1159) 
2341.4337291835636

>  <compound_id>  (1159) 
6452

>  <target_id>  (1159) 
1

>  <reference_id>  (1159) 
114

>  <inspiration_ids>  (1159) 
[114, 28]

>  <energy_score>  (1159) 
2254.7264131161114

>  <distance_score>  (1159) 
10.653771068041335

>  <path>  (1159) 
/opt/xchem-fragalysis-2/maxwin/BulkDock/SCRATCH/511018/C6452-P114/C6452-P114.minimised.mol

>  <scratch_subdir>  (1159) 
/opt/xchem-fragalysis-2/maxwin/BulkDock/SCRATCH/511018/C6452-P114

>  <fragmenstein_runtime>  (1159) 
44.78323221206665

>  <fragmenstein_outcome>  (1159) 
too moved

>  <fragmenstein_mode>  (1159) 
expansion

>  <fragmenstein_error>  (1159) 


$$$$
C6452-P28
     RDKit          3D

 49 50  0  0  0  0  0  0  0  0999 V2000
    6.9122   -6.8907   15.4256 C   0  0  0  0  0  0  0  0  0  0  0  0
    6.2923   -7.6952   14.1402 C   0  0  0  0  0  0  0  0  0  0  0  0
    4.6306   -8.4212   13.7905 C   0  0  0  0  0  0  0  0  0  0  0  0
    4.1724   -9.8199   13.5513 N   0  0  0  0  0  0  0  0  0  0  0  0
    3.1522  -10.0885   12.0588 C   0  0  0  0  0  0  0  0  0  0  0  0
    1.4185  -10.9545   11.8599 C   0  0  0  0  0  0  0  0  0  0  0  0
    0.8608  -10.4635   10.9582 O   0  0  0  0  0  0  0  0  0  0  0  0
    0.8789  -12.4233   13.0375 N   0  0  0  0  0  0  0  0  0  0  0  0
   -0.3488  -13.4757   13.0491 C   0  0  0  0  0  0  0  0  0  0  0  0
   -0.9400  -13.2266   13.0035 C   0  0  0  0  0  0  0  0  0  0  0  0
   -0.8417  -11.7063   11.9257 C   0  0  0  0  0  0  0  0  0  0  0  0
   -3.1332  -14.0226   13.4964 C   0  0  0  0  0  0  0  0  0  0  0  0
   -5.0180  -14.8518   12.9941 C   0  0  0  0  0  0  0  0  0  0  0  0
   -5.9928  -16.2867   12.2810 N   0  0  0  0  0  0  0  0  0  0  0  0
   -6.1177  -17.8494   12.7613 C   0  0  0  0  0  0  0  0  0  0  0  0
   -5.6530  -18.2758   13.7355 O   0  0  0  0  0  0  0  0  0  0  0  0
   -6.7901  -19.1442   11.8411 C   0  0  0  0  0  0  0  0  0  0  0  0
   -7.8113  -20.2869   11.7613 C   0  0  0  0  0  0  0  0  0  0  0  0
   -7.0889  -21.5035   12.3022 C   0  0  0  0  0  0  0  0  0  0  0  0
   -5.7276  -21.2708   11.6957 C   0  0  0  0  0  0  0  0  0  0  0  0
   -5.5197  -19.9657   12.1207 O   0  0  0  0  0  0  0  0  0  0  0  0
    3.4345   -8.4076   11.7034 C   0  0  0  0  0  0  0  0  0  0  0  0
    3.9818   -7.6060   12.9024 N   0  0  0  0  0  0  0  0  0  0  0  0
    6.4251   -6.8896   16.3978 H   0  0  0  0  0  0  0  0  0  0  0  0
    7.9764   -7.1351   15.3901 H   0  0  0  0  0  0  0  0  0  0  0  0
    6.9267   -5.8348   15.5687 H   0  0  0  0  0  0  0  0  0  0  0  0
    6.3663   -7.2163   13.1685 H   0  0  0  0  0  0  0  0  0  0  0  0
    7.0977   -8.4201   14.0064 H   0  0  0  0  0  0  0  0  0  0  0  0
   -0.2941  -14.3071   11.9349 H   0  0  0  0  0  0  0  0  0  0  0  0
    0.5732  -14.1850   13.1157 H   0  0  0  0  0  0  0  0  0  0  0  0
   -1.0067  -13.8748   14.3674 H   0  0  0  0  0  0  0  0  0  0  0  0
   -1.0786  -12.2365   13.8159 H   0  0  0  0  0  0  0  0  0  0  0  0
   -1.6049  -10.9732   11.9500 H   0  0  0  0  0  0  0  0  0  0  0  0
   -0.4953  -12.0112   10.9806 H   0  0  0  0  0  0  0  0  0  0  0  0
   -0.4206  -10.9554   12.5277 H   0  0  0  0  0  0  0  0  0  0  0  0
   -3.1577  -14.4056   12.2711 H   0  0  0  0  0  0  0  0  0  0  0  0
   -3.8219  -13.2540   13.5107 H   0  0  0  0  0  0  0  0  0  0  0  0
   -4.4929  -15.0507   12.1895 H   0  0  0  0  0  0  0  0  0  0  0  0
   -5.7659  -14.0752   12.7653 H   0  0  0  0  0  0  0  0  0  0  0  0
   -6.5514  -16.1551   11.4478 H   0  0  0  0  0  0  0  0  0  0  0  0
   -6.6482  -18.9993   10.7825 H   0  0  0  0  0  0  0  0  0  0  0  0
   -8.0015  -20.4272   10.6960 H   0  0  0  0  0  0  0  0  0  0  0  0
   -8.8366  -20.0663   12.0408 H   0  0  0  0  0  0  0  0  0  0  0  0
   -7.5281  -22.4794   12.1616 H   0  0  0  0  0  0  0  0  0  0  0  0
   -7.0939  -21.4391   13.3774 H   0  0  0  0  0  0  0  0  0  0  0  0
   -4.8821  -21.9088   11.8755 H   0  0  0  0  0  0  0  0  0  0  0  0
   -5.6119  -21.2085   10.6287 H   0  0  0  0  0  0  0  0  0  0  0  0
    2.6413   -7.6977   11.3891 H   0  0  0  0  0  0  0  0  0  0  0  0
    4.1452   -6.6703   12.5883 H   0  0  0  0  0  0  0  0  0  0  0  0
  1  2  1  0
  2  3  1  0
  3  4  2  0
  4  5  1  0
  5  6  1  0
  6  7  2  0
  6  8  1  0
  8  9  1  0
  8 10  1  0
 10 11  1  0
 10 12  1  0
 12 13  1  0
 13 14  1  0
 14 15  1  0
 15 16  2  0
 15 17  1  0
 17 18  1  0
 18 19  1  0
 19 20  1  0
 20 21  1  0
  5 22  2  0
 22 23  1  0
 23  3  1  0
 21 17  1  0
  1 24  1  0
  1 25  1  0
  1 26  1  0
  2 27  1  0
  2 28  1  0
  9 29  1  0
  9 30  1  0
  9 31  1  0
 10 32  1  0
 11 33  1  0
 11 34  1  0
 11 35  1  0
 12 36  1  0
 12 37  1  0
 13 38  1  0
 13 39  1  0
 14 40  1  0
 17 41  1  0
 18 42  1  0
 18 43  1  0
 19 44  1  0
 19 45  1  0
 20 46  1  0
 20 47  1  0
 22 48  1  0
 23 49  1  0
M  END
>  <Energy>  (1160) 
2068.8465184202105

>  <compound_id>  (1160) 
6452

>  <target_id>  (1160) 
1

>  <reference_id>  (1160) 
28

>  <inspiration_ids>  (1160) 
[114, 28]

>  <energy_score>  (1160) 
1982.1392023527515

>  <distance_score>  (1160) 
9.837399789333444

>  <path>  (1160) 
/opt/xchem-fragalysis-2/maxwin/BulkDock/SCRATCH/511018/C6452-P28/C6452-P28.minimised.mol

>  <scratch_subdir>  (1160) 
/opt/xchem-fragalysis-2/maxwin/BulkDock/SCRATCH/511018/C6452-P28

>  <fragmenstein_runtime>  (1160) 
35.585323333740234

>  <fragmenstein_outcome>  (1160) 
too moved

>  <fragmenstein_mode>  (1160) 
expansion

>  <fragmenstein_error>  (1160) 


$$$$
C6453-P114
     RDKit          3D

 44 45  0  0  0  0  0  0  0  0999 V2000
    7.1330   -9.3322   13.6901 C   0  0  0  0  0  0  0  0  0  0  0  0
    5.8110  -10.7594   14.4489 C   0  0  0  0  0  0  0  0  0  0  0  0
    3.9048  -11.6082   14.9845 N   0  0  0  0  0  0  0  0  0  0  0  0
    1.9836  -12.7189   14.9369 C   0  0  0  0  0  0  0  0  0  0  0  0
    0.8276  -13.5831   13.3416 C   0  0  0  0  0  0  0  0  0  0  0  0
    0.4590  -15.0795   12.0387 C   0  0  0  0  0  0  0  0  0  0  0  0
    0.4943  -16.2784   12.6556 O   0  0  0  0  0  0  0  0  0  0  0  0
    0.9702  -16.1889   10.6258 C   0  0  0  0  0  0  0  0  0  0  0  0
    2.1813  -16.4668   10.1514 N   0  0  0  0  0  0  0  0  0  0  0  0
    2.3094  -17.8390   10.0711 C   0  0  0  0  0  0  0  0  0  0  0  0
    1.1324  -18.4661   10.3647 C   0  0  0  0  0  0  0  0  0  0  0  0
    0.2154  -17.4306   10.3040 N   0  0  0  0  0  0  0  0  0  0  0  0
   -0.8783  -17.6535    9.3404 C   0  0  0  0  0  0  0  0  0  0  0  0
   -0.7889  -14.6103   11.3239 C   0  0  0  0  0  0  0  0  0  0  0  0
   -0.9224  -15.3214   10.2251 F   0  0  0  0  0  0  0  0  0  0  0  0
   -2.0892  -14.6832   11.5283 F   0  0  0  0  0  0  0  0  0  0  0  0
   -0.4931  -13.3086   11.1570 F   0  0  0  0  0  0  0  0  0  0  0  0
    7.6832  -10.2092   15.6061 C   0  0  0  0  0  0  0  0  0  0  0  0
    7.8774  -10.1543   17.5092 C   0  0  0  0  0  0  0  0  0  0  0  0
    7.0131   -8.7518   18.4021 C   0  0  0  0  0  0  0  0  0  0  0  0
    6.7431   -7.4002   17.0636 C   0  0  0  0  0  0  0  0  0  0  0  0
    7.5634   -8.2482   15.5603 O   0  0  0  0  0  0  0  0  0  0  0  0
    7.4519   -9.0890   12.6613 H   0  0  0  0  0  0  0  0  0  0  0  0
    6.6662   -8.3288   13.8706 H   0  0  0  0  0  0  0  0  0  0  0  0
    8.1746   -9.4299   13.9466 H   0  0  0  0  0  0  0  0  0  0  0  0
    5.0971  -10.0036   14.0957 H   0  0  0  0  0  0  0  0  0  0  0  0
    3.9104  -11.4093   15.9897 H   0  0  0  0  0  0  0  0  0  0  0  0
    1.3215  -12.0051   14.4002 H   0  0  0  0  0  0  0  0  0  0  0  0
    1.6119  -12.8722   15.9073 H   0  0  0  0  0  0  0  0  0  0  0  0
   -0.1417  -13.7982   13.7983 H   0  0  0  0  0  0  0  0  0  0  0  0
    0.4283  -12.6821   12.8203 H   0  0  0  0  0  0  0  0  0  0  0  0
    1.2434  -16.8873   12.5100 H   0  0  0  0  0  0  0  0  0  0  0  0
    3.2575  -18.2924    9.8134 H   0  0  0  0  0  0  0  0  0  0  0  0
    0.8438  -19.5081   10.3470 H   0  0  0  0  0  0  0  0  0  0  0  0
   -0.4752  -17.4696    8.3402 H   0  0  0  0  0  0  0  0  0  0  0  0
   -1.7422  -17.0235    9.5298 H   0  0  0  0  0  0  0  0  0  0  0  0
   -1.1912  -18.7010    9.4091 H   0  0  0  0  0  0  0  0  0  0  0  0
    8.6829  -10.4436   15.1805 H   0  0  0  0  0  0  0  0  0  0  0  0
    8.9365  -10.1229   17.6559 H   0  0  0  0  0  0  0  0  0  0  0  0
    7.5878  -11.0887   18.0001 H   0  0  0  0  0  0  0  0  0  0  0  0
    6.0014   -9.1000   18.6599 H   0  0  0  0  0  0  0  0  0  0  0  0
    7.4540   -8.4930   19.3691 H   0  0  0  0  0  0  0  0  0  0  0  0
    7.1043   -6.4000   17.1341 H   0  0  0  0  0  0  0  0  0  0  0  0
    5.7102   -7.1449   16.9025 H   0  0  0  0  0  0  0  0  0  0  0  0
  1  2  1  0
  2  3  1  0
  3  4  1  0
  4  5  1  0
  5  6  1  0
  6  7  1  0
  6  8  1  0
  8  9  2  0
  9 10  1  0
 10 11  2  0
 11 12  1  0
 12 13  1  0
  6 14  1  0
 14 15  1  0
 14 16  1  0
 14 17  1  0
  2 18  1  0
 18 19  1  0
 19 20  1  0
 20 21  1  0
 21 22  1  0
 12  8  1  0
 22 18  1  0
  1 23  1  0
  1 24  1  0
  1 25  1  0
  2 26  1  0
  3 27  1  0
  4 28  1  0
  4 29  1  0
  5 30  1  0
  5 31  1  0
  7 32  1  0
 10 33  1  0
 11 34  1  0
 13 35  1  0
 13 36  1  0
 13 37  1  0
 18 38  1  0
 19 39  1  0
 19 40  1  0
 20 41  1  0
 20 42  1  0
 21 43  1  0
 21 44  1  0
M  END
>  <Energy>  (1161) 
1569.78256151146

>  <compound_id>  (1161) 
6453

>  <target_id>  (1161) 
1

>  <reference_id>  (1161) 
114

>  <inspiration_ids>  (1161) 
[114, 28]

>  <energy_score>  (1161) 
1419.2017164521658

>  <distance_score>  (1161) 
13.875892155070666

>  <path>  (1161) 
/opt/xchem-fragalysis-2/maxwin/BulkDock/SCRATCH/511018/C6453-P114/C6453-P114.minimised.mol

>  <scratch_subdir>  (1161) 
/opt/xchem-fragalysis-2/maxwin/BulkDock/SCRATCH/511018/C6453-P114

>  <fragmenstein_runtime>  (1161) 
17.03142499923706

>  <fragmenstein_outcome>  (1161) 
too moved

>  <fragmenstein_mode>  (1161) 
expansion

>  <fragmenstein_error>  (1161) 


$$$$
C6453-P28
     RDKit          3D

 44 45  0  0  0  0  0  0  0  0999 V2000
   -4.7521   -8.5802    8.1686 C   0  0  0  0  0  0  0  0  0  0  0  0
   -4.0868   -9.6901    7.3149 C   0  0  0  0  0  0  0  0  0  0  0  0
   -4.4705  -11.0720    7.9704 N   0  0  0  0  0  0  0  0  0  0  0  0
   -5.2371  -12.2101    7.2174 C   0  0  0  0  0  0  0  0  0  0  0  0
   -5.6241  -13.5931    8.1103 C   0  0  0  0  0  0  0  0  0  0  0  0
   -6.4512  -14.9286    7.5884 C   0  0  0  0  0  0  0  0  0  0  0  0
   -7.7316  -14.4268    7.1238 O   0  0  0  0  0  0  0  0  0  0  0  0
   -6.7650  -16.0425    8.6628 C   0  0  0  0  0  0  0  0  0  0  0  0
   -5.9078  -16.4711    9.5802 N   0  0  0  0  0  0  0  0  0  0  0  0
   -6.4638  -17.5630   10.2016 C   0  0  0  0  0  0  0  0  0  0  0  0
   -7.6675  -17.8735    9.6347 C   0  0  0  0  0  0  0  0  0  0  0  0
   -7.8589  -16.9198    8.6629 N   0  0  0  0  0  0  0  0  0  0  0  0
   -9.0093  -16.9356    7.7915 C   0  0  0  0  0  0  0  0  0  0  0  0
   -5.6819  -15.6666    6.4569 C   0  0  0  0  0  0  0  0  0  0  0  0
   -4.3668  -15.8201    6.7156 F   0  0  0  0  0  0  0  0  0  0  0  0
   -6.2030  -16.9047    6.1925 F   0  0  0  0  0  0  0  0  0  0  0  0
   -5.7797  -14.9426    5.3074 F   0  0  0  0  0  0  0  0  0  0  0  0
   -2.5666   -9.1804    7.0840 C   0  0  0  0  0  0  0  0  0  0  0  0
   -2.3764   -7.9232    6.2027 C   0  0  0  0  0  0  0  0  0  0  0  0
   -1.4713   -6.9766    6.9806 C   0  0  0  0  0  0  0  0  0  0  0  0
   -0.8344   -7.8870    7.9855 C   0  0  0  0  0  0  0  0  0  0  0  0
   -1.8866   -8.8221    8.2978 O   0  0  0  0  0  0  0  0  0  0  0  0
   -5.8424   -8.6947    8.1256 H   0  0  0  0  0  0  0  0  0  0  0  0
   -4.5326   -7.5740    7.8022 H   0  0  0  0  0  0  0  0  0  0  0  0
   -4.4775   -8.6306    9.2188 H   0  0  0  0  0  0  0  0  0  0  0  0
   -4.5670   -9.7016    6.3288 H   0  0  0  0  0  0  0  0  0  0  0  0
   -5.0863  -10.8136    8.7439 H   0  0  0  0  0  0  0  0  0  0  0  0
   -4.6231  -12.5268    6.3691 H   0  0  0  0  0  0  0  0  0  0  0  0
   -6.1765  -11.7885    6.8458 H   0  0  0  0  0  0  0  0  0  0  0  0
   -4.6731  -13.9677    8.4997 H   0  0  0  0  0  0  0  0  0  0  0  0
   -6.2273  -13.2126    8.9433 H   0  0  0  0  0  0  0  0  0  0  0  0
   -7.5701  -14.0120    6.2559 H   0  0  0  0  0  0  0  0  0  0  0  0
   -5.9540  -18.0609   11.0155 H   0  0  0  0  0  0  0  0  0  0  0  0
   -8.3845  -18.6579    9.8341 H   0  0  0  0  0  0  0  0  0  0  0  0
   -9.6346  -16.0732    8.0343 H   0  0  0  0  0  0  0  0  0  0  0  0
   -9.5796  -17.8559    7.9449 H   0  0  0  0  0  0  0  0  0  0  0  0
   -8.6704  -16.8935    6.7543 H   0  0  0  0  0  0  0  0  0  0  0  0
   -2.0120   -9.9707    6.5767 H   0  0  0  0  0  0  0  0  0  0  0  0
   -1.8966   -8.2145    5.2600 H   0  0  0  0  0  0  0  0  0  0  0  0
   -3.3202   -7.4443    5.9249 H   0  0  0  0  0  0  0  0  0  0  0  0
   -0.7494   -6.4491    6.3520 H   0  0  0  0  0  0  0  0  0  0  0  0
   -2.0916   -6.2311    7.4916 H   0  0  0  0  0  0  0  0  0  0  0  0
    0.0115   -8.4313    7.5544 H   0  0  0  0  0  0  0  0  0  0  0  0
   -0.5066   -7.3562    8.8799 H   0  0  0  0  0  0  0  0  0  0  0  0
  1  2  1  0
  2  3  1  0
  3  4  1  0
  4  5  1  0
  5  6  1  0
  6  7  1  0
  6  8  1  0
  8  9  2  0
  9 10  1  0
 10 11  2  0
 11 12  1  0
 12 13  1  0
  6 14  1  0
 14 15  1  0
 14 16  1  0
 14 17  1  0
  2 18  1  0
 18 19  1  0
 19 20  1  0
 20 21  1  0
 21 22  1  0
 12  8  1  0
 22 18  1  0
  1 23  1  0
  1 24  1  0
  1 25  1  0
  2 26  1  0
  3 27  1  0
  4 28  1  0
  4 29  1  0
  5 30  1  0
  5 31  1  0
  7 32  1  0
 10 33  1  0
 11 34  1  0
 13 35  1  0
 13 36  1  0
 13 37  1  0
 18 38  1  0
 19 39  1  0
 19 40  1  0
 20 41  1  0
 20 42  1  0
 21 43  1  0
 21 44  1  0
M  END
>  <Energy>  (1162) 
155.30814336743273

>  <compound_id>  (1162) 
6453

>  <target_id>  (1162) 
1

>  <reference_id>  (1162) 
28

>  <inspiration_ids>  (1162) 
[114, 28]

>  <energy_score>  (1162) 
4.727298308138103

>  <distance_score>  (1162) 
14.594434140990426

>  <path>  (1162) 
/opt/xchem-fragalysis-2/maxwin/BulkDock/SCRATCH/511018/C6453-P28/C6453-P28.minimised.mol

>  <scratch_subdir>  (1162) 
/opt/xchem-fragalysis-2/maxwin/BulkDock/SCRATCH/511018/C6453-P28

>  <fragmenstein_runtime>  (1162) 
16.100252866744995

>  <fragmenstein_outcome>  (1162) 
too moved

>  <fragmenstein_mode>  (1162) 
expansion

>  <fragmenstein_error>  (1162) 


$$$$
C6454-P114
     RDKit          3D

 35 38  0  0  0  0  0  0  0  0999 V2000
   -9.3697  -20.7656    9.8779 C   0  0  0  0  0  0  0  0  0  0  0  0
   -8.2535  -19.8718   10.2377 C   0  0  0  0  0  0  0  0  0  0  0  0
   -6.8173  -19.7344   11.0823 C   0  0  0  0  0  0  0  0  0  0  0  0
   -5.0502  -20.2286   10.0237 C   0  0  0  0  0  0  0  0  0  0  0  0
   -4.7004  -21.1773    8.9224 N   0  0  0  0  0  0  0  0  0  0  0  0
   -3.6117  -20.5372    7.8523 N   0  0  0  0  0  0  0  0  0  0  0  0
   -3.5790  -19.2268    8.0983 C   0  0  0  0  0  0  0  0  0  0  0  0
   -2.8480  -18.0190    7.4141 C   0  0  0  0  0  0  0  0  0  0  0  0
   -2.0492  -18.3271    6.1444 C   0  0  0  0  0  0  0  0  0  0  0  0
   -0.7796  -17.4896    6.2604 C   0  0  0  0  0  0  0  0  0  0  0  0
   -0.5594  -17.5985    7.7357 C   0  0  0  0  0  0  0  0  0  0  0  0
   -1.8822  -17.3086    8.2555 O   0  0  0  0  0  0  0  0  0  0  0  0
   -4.6500  -18.9270    8.9282 O   0  0  0  0  0  0  0  0  0  0  0  0
   -7.7275  -20.6459   12.0120 C   0  0  0  0  0  0  0  0  0  0  0  0
   -8.7960  -21.8718   11.7204 C   0  0  0  0  0  0  0  0  0  0  0  0
   -9.0769  -23.0406   12.4646 N   0  0  0  0  0  0  0  0  0  0  0  0
   -9.7160  -23.1309   13.6759 C   0  0  0  0  0  0  0  0  0  0  0  0
  -10.2096  -24.4196   13.7531 C   0  0  0  0  0  0  0  0  0  0  0  0
   -9.9142  -25.1419   12.6375 N   0  0  0  0  0  0  0  0  0  0  0  0
   -9.2425  -24.3033   11.8861 C   0  0  0  0  0  0  0  0  0  0  0  0
   -9.5850  -21.8621   10.6066 C   0  0  0  0  0  0  0  0  0  0  0  0
   -9.8984  -20.5787    8.9442 H   0  0  0  0  0  0  0  0  0  0  0  0
   -8.1812  -19.3092    9.3073 H   0  0  0  0  0  0  0  0  0  0  0  0
   -3.6269  -17.2827    7.1801 H   0  0  0  0  0  0  0  0  0  0  0  0
   -1.7892  -19.3918    6.0955 H   0  0  0  0  0  0  0  0  0  0  0  0
   -2.6169  -18.0966    5.2372 H   0  0  0  0  0  0  0  0  0  0  0  0
   -0.9840  -16.4557    5.9617 H   0  0  0  0  0  0  0  0  0  0  0  0
    0.0468  -17.8838    5.6643 H   0  0  0  0  0  0  0  0  0  0  0  0
   -0.2697  -18.6234    7.9970 H   0  0  0  0  0  0  0  0  0  0  0  0
    0.2127  -16.9377    8.1276 H   0  0  0  0  0  0  0  0  0  0  0  0
   -8.5427  -19.8501   12.1296 H   0  0  0  0  0  0  0  0  0  0  0  0
   -9.7641  -22.2965   14.3556 H   0  0  0  0  0  0  0  0  0  0  0  0
  -10.7500  -24.8798   14.5658 H   0  0  0  0  0  0  0  0  0  0  0  0
   -8.8524  -24.5268   10.9026 H   0  0  0  0  0  0  0  0  0  0  0  0
  -10.3332  -22.5928   10.3335 H   0  0  0  0  0  0  0  0  0  0  0  0
  1  2  2  0
  2  3  1  0
  3  4  1  0
  4  5  2  0
  5  6  1  0
  6  7  2  0
  7  8  1  0
  8  9  1  0
  9 10  1  0
 10 11  1  0
 11 12  1  0
  7 13  1  0
  3 14  2  0
 14 15  1  0
 15 16  1  0
 16 17  1  0
 17 18  2  0
 18 19  1  0
 19 20  2  0
 15 21  2  0
 21  1  1  0
 13  4  1  0
 20 16  1  0
 12  8  1  0
  1 22  1  0
  2 23  1  0
  8 24  1  0
  9 25  1  0
  9 26  1  0
 10 27  1  0
 10 28  1  0
 11 29  1  0
 11 30  1  0
 14 31  1  0
 17 32  1  0
 18 33  1  0
 20 34  1  0
 21 35  1  0
M  END
>  <Energy>  (1163) 
530.70470218364528

>  <compound_id>  (1163) 
6454

>  <target_id>  (1163) 
1

>  <reference_id>  (1163) 
114

>  <inspiration_ids>  (1163) 
[114, 28]

>  <energy_score>  (1163) 
421.54374933214217

>  <distance_score>  (1163) 
13.688548912758833

>  <path>  (1163) 
/opt/xchem-fragalysis-2/maxwin/BulkDock/SCRATCH/511018/C6454-P114/C6454-P114.minimised.mol

>  <scratch_subdir>  (1163) 
/opt/xchem-fragalysis-2/maxwin/BulkDock/SCRATCH/511018/C6454-P114

>  <fragmenstein_runtime>  (1163) 
14.410449981689453

>  <fragmenstein_outcome>  (1163) 
too moved

>  <fragmenstein_mode>  (1163) 
expansion

>  <fragmenstein_error>  (1163) 


$$$$
C6454-P28
     RDKit          3D

 35 38  0  0  0  0  0  0  0  0999 V2000
   -6.6168  -19.3597   11.9938 C   0  0  0  0  0  0  0  0  0  0  0  0
   -5.6089  -18.8950   12.7871 C   0  0  0  0  0  0  0  0  0  0  0  0
   -4.0422  -19.3154   12.7884 C   0  0  0  0  0  0  0  0  0  0  0  0
   -2.5878  -17.9802   13.5802 C   0  0  0  0  0  0  0  0  0  0  0  0
   -3.4143  -16.5051   13.5571 N   0  0  0  0  0  0  0  0  0  0  0  0
   -2.8006  -15.5125   11.7786 N   0  0  0  0  0  0  0  0  0  0  0  0
   -1.0844  -15.7941   11.4620 C   0  0  0  0  0  0  0  0  0  0  0  0
    0.1524  -14.4010   11.8638 C   0  0  0  0  0  0  0  0  0  0  0  0
    0.1071  -12.8670   11.5146 C   0  0  0  0  0  0  0  0  0  0  0  0
    0.4753  -11.7453   12.4569 C   0  0  0  0  0  0  0  0  0  0  0  0
    1.4288  -12.6260   13.0862 C   0  0  0  0  0  0  0  0  0  0  0  0
    0.5214  -13.8508   13.1568 O   0  0  0  0  0  0  0  0  0  0  0  0
   -0.9602  -17.6467   12.1982 O   0  0  0  0  0  0  0  0  0  0  0  0
   -4.4596  -20.6577   12.4541 C   0  0  0  0  0  0  0  0  0  0  0  0
   -5.9408  -21.2229   11.9244 C   0  0  0  0  0  0  0  0  0  0  0  0
   -7.4033  -21.8185   12.5202 N   0  0  0  0  0  0  0  0  0  0  0  0
   -8.7225  -21.5743   11.9304 C   0  0  0  0  0  0  0  0  0  0  0  0
   -9.6546  -22.4324   12.4458 C   0  0  0  0  0  0  0  0  0  0  0  0
   -9.1662  -22.8839   13.5820 N   0  0  0  0  0  0  0  0  0  0  0  0
   -7.9901  -22.2742   13.6676 C   0  0  0  0  0  0  0  0  0  0  0  0
   -6.4091  -20.3130   11.1249 C   0  0  0  0  0  0  0  0  0  0  0  0
   -7.6544  -19.2060   12.1763 H   0  0  0  0  0  0  0  0  0  0  0  0
   -5.9345  -18.0227   13.3853 H   0  0  0  0  0  0  0  0  0  0  0  0
    1.0620  -14.9177   11.5302 H   0  0  0  0  0  0  0  0  0  0  0  0
   -0.6727  -12.4422   10.9612 H   0  0  0  0  0  0  0  0  0  0  0  0
    1.0754  -12.7953   11.0180 H   0  0  0  0  0  0  0  0  0  0  0  0
   -0.3374  -11.4237   13.0943 H   0  0  0  0  0  0  0  0  0  0  0  0
    0.9243  -10.8703   11.9786 H   0  0  0  0  0  0  0  0  0  0  0  0
    2.3070  -12.8484   12.4677 H   0  0  0  0  0  0  0  0  0  0  0  0
    1.7781  -12.2268   14.0426 H   0  0  0  0  0  0  0  0  0  0  0  0
   -3.7325  -21.3584   12.7633 H   0  0  0  0  0  0  0  0  0  0  0  0
   -8.8525  -20.8855   11.1243 H   0  0  0  0  0  0  0  0  0  0  0  0
  -10.6600  -22.6440   12.1199 H   0  0  0  0  0  0  0  0  0  0  0  0
   -7.6123  -22.1797   14.6392 H   0  0  0  0  0  0  0  0  0  0  0  0
   -7.2827  -20.3442   10.5084 H   0  0  0  0  0  0  0  0  0  0  0  0
  1  2  2  0
  2  3  1  0
  3  4  1  0
  4  5  2  0
  5  6  1  0
  6  7  2  0
  7  8  1  0
  8  9  1  0
  9 10  1  0
 10 11  1  0
 11 12  1  0
  7 13  1  0
  3 14  2  0
 14 15  1  0
 15 16  1  0
 16 17  1  0
 17 18  2  0
 18 19  1  0
 19 20  2  0
 15 21  2  0
 21  1  1  0
 13  4  1  0
 20 16  1  0
 12  8  1  0
  1 22  1  0
  2 23  1  0
  8 24  1  0
  9 25  1  0
  9 26  1  0
 10 27  1  0
 10 28  1  0
 11 29  1  0
 11 30  1  0
 14 31  1  0
 17 32  1  0
 18 33  1  0
 20 34  1  0
 21 35  1  0
M  END
>  <Energy>  (1164) 
1243.7534478683808

>  <compound_id>  (1164) 
6454

>  <target_id>  (1164) 
1

>  <reference_id>  (1164) 
28

>  <inspiration_ids>  (1164) 
[114, 28]

>  <energy_score>  (1164) 
1134.5924950168837

>  <distance_score>  (1164) 
11.235746155355613

>  <path>  (1164) 
/opt/xchem-fragalysis-2/maxwin/BulkDock/SCRATCH/511018/C6454-P28/C6454-P28.minimised.mol

>  <scratch_subdir>  (1164) 
/opt/xchem-fragalysis-2/maxwin/BulkDock/SCRATCH/511018/C6454-P28

>  <fragmenstein_runtime>  (1164) 
13.850392818450928

>  <fragmenstein_outcome>  (1164) 
too moved

>  <fragmenstein_mode>  (1164) 
expansion

>  <fragmenstein_error>  (1164) 


$$$$
C6456-P114
     RDKit          3D

 33 35  0  0  0  0  0  0  0  0999 V2000
   -0.2699  -13.0425   12.7252 N   0  0  0  0  0  0  0  0  0  0  0  0
    0.0379  -13.7021   13.9782 C   0  0  0  0  0  0  0  0  0  0  0  0
    1.6873  -12.7746   14.9964 C   0  0  0  0  0  0  0  0  0  0  0  0
    3.5077  -11.7931   15.4673 C   0  0  0  0  0  0  0  0  0  0  0  0
    4.5190  -11.1058   14.7291 C   0  0  0  0  0  0  0  0  0  0  0  0
    5.2824  -10.3690   15.6068 N   0  0  0  0  0  0  0  0  0  0  0  0
    4.7532  -10.5128   16.8445 C   0  0  0  0  0  0  0  0  0  0  0  0
    3.7120  -11.3098   16.8237 N   0  0  0  0  0  0  0  0  0  0  0  0
   -1.4289  -14.2541   15.3910 C   0  0  0  0  0  0  0  0  0  0  0  0
   -1.7692  -13.8876   16.6274 N   0  0  0  0  0  0  0  0  0  0  0  0
   -2.9961  -14.4055   16.8305 N   0  0  0  0  0  0  0  0  0  0  0  0
   -3.2568  -15.4525   16.1091 C   0  0  0  0  0  0  0  0  0  0  0  0
   -4.2596  -16.8810   16.2226 C   0  0  0  0  0  0  0  0  0  0  0  0
   -4.4998  -17.3753   17.6582 C   0  0  0  0  0  0  0  0  0  0  0  0
   -4.0042  -18.7981   17.8034 C   0  0  0  0  0  0  0  0  0  0  0  0
   -3.2091  -19.0416   16.5605 C   0  0  0  0  0  0  0  0  0  0  0  0
   -3.7243  -18.1140   15.5547 O   0  0  0  0  0  0  0  0  0  0  0  0
   -2.4121  -15.2872   15.0773 O   0  0  0  0  0  0  0  0  0  0  0  0
   -0.4705  -12.0578   12.8045 H   0  0  0  0  0  0  0  0  0  0  0  0
    0.3909  -13.2023   11.9797 H   0  0  0  0  0  0  0  0  0  0  0  0
    0.2602  -14.6418   13.4661 H   0  0  0  0  0  0  0  0  0  0  0  0
    1.4988  -13.0786   16.0079 H   0  0  0  0  0  0  0  0  0  0  0  0
    1.2784  -12.0310   14.3142 H   0  0  0  0  0  0  0  0  0  0  0  0
    4.7422  -10.9843   13.6843 H   0  0  0  0  0  0  0  0  0  0  0  0
    6.0461   -9.7590   15.3537 H   0  0  0  0  0  0  0  0  0  0  0  0
    5.1408  -10.0080   17.7183 H   0  0  0  0  0  0  0  0  0  0  0  0
   -5.2041  -16.6815   15.7193 H   0  0  0  0  0  0  0  0  0  0  0  0
   -3.9157  -16.8276   18.3833 H   0  0  0  0  0  0  0  0  0  0  0  0
   -5.5588  -17.2990   17.9228 H   0  0  0  0  0  0  0  0  0  0  0  0
   -4.8268  -19.5026   17.9042 H   0  0  0  0  0  0  0  0  0  0  0  0
   -3.3915  -18.9326   18.7020 H   0  0  0  0  0  0  0  0  0  0  0  0
   -2.1430  -18.9173   16.7515 H   0  0  0  0  0  0  0  0  0  0  0  0
   -3.1905  -20.0859   16.2458 H   0  0  0  0  0  0  0  0  0  0  0  0
  1  2  1  0
  2  3  1  0
  3  4  1  0
  4  5  2  0
  5  6  1  0
  6  7  1  0
  7  8  2  0
  2  9  1  0
  9 10  2  0
 10 11  1  0
 11 12  2  0
 12 13  1  0
 13 14  1  0
 14 15  1  0
 15 16  1  0
 16 17  1  0
 12 18  1  0
  8  4  1  0
 18  9  1  0
 17 13  1  0
  1 19  1  0
  1 20  1  0
  2 21  1  0
  3 22  1  0
  3 23  1  0
  5 24  1  0
  6 25  1  0
  7 26  1  0
 13 27  1  0
 14 28  1  0
 14 29  1  0
 15 30  1  0
 15 31  1  0
 16 32  1  0
 16 33  1  0
M  END
>  <Energy>  (1165) 
508.91169788457381

>  <compound_id>  (1165) 
6456

>  <target_id>  (1165) 
1

>  <reference_id>  (1165) 
114

>  <inspiration_ids>  (1165) 
[114, 28]

>  <energy_score>  (1165) 
403.7544374467867

>  <distance_score>  (1165) 
12.63492883769174

>  <path>  (1165) 
/opt/xchem-fragalysis-2/maxwin/BulkDock/SCRATCH/511018/C6456-P114/C6456-P114.minimised.mol

>  <scratch_subdir>  (1165) 
/opt/xchem-fragalysis-2/maxwin/BulkDock/SCRATCH/511018/C6456-P114

>  <fragmenstein_runtime>  (1165) 
12.79401183128357

>  <fragmenstein_outcome>  (1165) 
too moved

>  <fragmenstein_mode>  (1165) 
expansion

>  <fragmenstein_error>  (1165) 


$$$$
C6456-P28
     RDKit          3D

 33 35  0  0  0  0  0  0  0  0999 V2000
   -0.1965  -12.7611   12.1562 N   0  0  0  0  0  0  0  0  0  0  0  0
    0.1436  -13.1733   13.5018 C   0  0  0  0  0  0  0  0  0  0  0  0
    1.5935  -11.7642   14.0486 C   0  0  0  0  0  0  0  0  0  0  0  0
    3.3594  -10.5108   14.2778 C   0  0  0  0  0  0  0  0  0  0  0  0
    4.8274  -10.7521   14.1823 C   0  0  0  0  0  0  0  0  0  0  0  0
    5.5620   -9.6220   14.4661 N   0  0  0  0  0  0  0  0  0  0  0  0
    4.7705   -8.8314   15.2012 C   0  0  0  0  0  0  0  0  0  0  0  0
    3.5730   -9.3535   15.2331 N   0  0  0  0  0  0  0  0  0  0  0  0
   -1.1745  -14.0059   14.9527 C   0  0  0  0  0  0  0  0  0  0  0  0
   -1.2754  -13.7958   16.4489 N   0  0  0  0  0  0  0  0  0  0  0  0
   -2.6304  -14.2218   17.0923 N   0  0  0  0  0  0  0  0  0  0  0  0
   -3.3434  -15.0445   16.2824 C   0  0  0  0  0  0  0  0  0  0  0  0
   -4.3638  -16.4553   16.3327 C   0  0  0  0  0  0  0  0  0  0  0  0
   -3.9843  -17.5347   17.2299 C   0  0  0  0  0  0  0  0  0  0  0  0
   -3.3956  -18.6807   16.4580 C   0  0  0  0  0  0  0  0  0  0  0  0
   -3.5745  -18.2338   15.0343 C   0  0  0  0  0  0  0  0  0  0  0  0
   -4.4265  -17.0960   15.0634 O   0  0  0  0  0  0  0  0  0  0  0  0
   -2.6767  -14.8762   14.8948 O   0  0  0  0  0  0  0  0  0  0  0  0
   -0.6732  -13.5146   11.6755 H   0  0  0  0  0  0  0  0  0  0  0  0
   -0.7948  -11.9429   12.1946 H   0  0  0  0  0  0  0  0  0  0  0  0
    0.6778  -14.0226   13.1193 H   0  0  0  0  0  0  0  0  0  0  0  0
    1.9703  -12.5191   14.7224 H   0  0  0  0  0  0  0  0  0  0  0  0
    1.4741  -11.3433   13.0276 H   0  0  0  0  0  0  0  0  0  0  0  0
    5.4078  -11.6030   13.8630 H   0  0  0  0  0  0  0  0  0  0  0  0
    6.5572   -9.5136   14.3385 H   0  0  0  0  0  0  0  0  0  0  0  0
    5.0935   -7.9326   15.7061 H   0  0  0  0  0  0  0  0  0  0  0  0
   -5.3878  -16.2192   16.6530 H   0  0  0  0  0  0  0  0  0  0  0  0
   -3.2676  -17.0133   17.8043 H   0  0  0  0  0  0  0  0  0  0  0  0
   -4.8237  -17.8598   17.8566 H   0  0  0  0  0  0  0  0  0  0  0  0
   -3.8786  -19.5824   16.8316 H   0  0  0  0  0  0  0  0  0  0  0  0
   -2.3403  -18.9111   16.6412 H   0  0  0  0  0  0  0  0  0  0  0  0
   -2.6169  -17.9878   14.5988 H   0  0  0  0  0  0  0  0  0  0  0  0
   -3.9312  -18.9265   14.2789 H   0  0  0  0  0  0  0  0  0  0  0  0
  1  2  1  0
  2  3  1  0
  3  4  1  0
  4  5  2  0
  5  6  1  0
  6  7  1  0
  7  8  2  0
  2  9  1  0
  9 10  2  0
 10 11  1  0
 11 12  2  0
 12 13  1  0
 13 14  1  0
 14 15  1  0
 15 16  1  0
 16 17  1  0
 12 18  1  0
  8  4  1  0
 18  9  1  0
 17 13  1  0
  1 19  1  0
  1 20  1  0
  2 21  1  0
  3 22  1  0
  3 23  1  0
  5 24  1  0
  6 25  1  0
  7 26  1  0
 13 27  1  0
 14 28  1  0
 14 29  1  0
 15 30  1  0
 15 31  1  0
 16 32  1  0
 16 33  1  0
M  END
>  <Energy>  (1166) 
658.35195769261793

>  <compound_id>  (1166) 
6456

>  <target_id>  (1166) 
1

>  <reference_id>  (1166) 
28

>  <inspiration_ids>  (1166) 
[114, 28]

>  <energy_score>  (1166) 
553.1946972548353

>  <distance_score>  (1166) 
12.460011859942519

>  <path>  (1166) 
/opt/xchem-fragalysis-2/maxwin/BulkDock/SCRATCH/511018/C6456-P28/C6456-P28.minimised.mol

>  <scratch_subdir>  (1166) 
/opt/xchem-fragalysis-2/maxwin/BulkDock/SCRATCH/511018/C6456-P28

>  <fragmenstein_runtime>  (1166) 
12.201401233673096

>  <fragmenstein_outcome>  (1166) 
too moved

>  <fragmenstein_mode>  (1166) 
expansion

>  <fragmenstein_error>  (1166) 


$$$$
C6457-P114
     RDKit          3D

 49 50  0  0  0  0  0  0  0  0999 V2000
   -8.7569  -20.1254   10.5224 C   0  0  0  0  0  0  0  0  0  0  0  0
   -7.4157  -20.1642   11.7691 C   0  0  0  0  0  0  0  0  0  0  0  0
   -7.1978  -21.5413   13.0257 C   0  0  0  0  0  0  0  0  0  0  0  0
   -7.9964  -21.2313   11.5941 N   0  0  0  0  0  0  0  0  0  0  0  0
   -6.3966  -19.7690   11.8150 C   0  0  0  0  0  0  0  0  0  0  0  0
   -4.1950  -19.7910   11.3411 C   0  0  0  0  0  0  0  0  0  0  0  0
   -2.9848  -18.2726   10.3744 N   0  0  0  0  0  0  0  0  0  0  0  0
   -1.0408  -17.5426   10.8311 C   0  0  0  0  0  0  0  0  0  0  0  0
   -0.2215  -17.9490   11.7171 O   0  0  0  0  0  0  0  0  0  0  0  0
   -0.6362  -16.4393    9.9900 C   0  0  0  0  0  0  0  0  0  0  0  0
    0.8472  -16.2141   10.3574 C   0  0  0  0  0  0  0  0  0  0  0  0
    0.5992  -15.4374   11.6350 C   0  0  0  0  0  0  0  0  0  0  0  0
   -0.5333  -14.5874   11.4262 C   0  0  0  0  0  0  0  0  0  0  0  0
   -1.3933  -15.3019   10.5583 O   0  0  0  0  0  0  0  0  0  0  0  0
   -9.6360  -21.5205   12.2636 C   0  0  0  0  0  0  0  0  0  0  0  0
  -10.3186  -20.8999   12.9680 O   0  0  0  0  0  0  0  0  0  0  0  0
  -10.1929  -22.8771   11.6149 C   0  0  0  0  0  0  0  0  0  0  0  0
  -10.3305  -23.0945   10.1030 C   0  0  0  0  0  0  0  0  0  0  0  0
   -9.8755  -24.1607   12.2697 N   0  0  0  0  0  0  0  0  0  0  0  0
  -10.7350  -24.8373   13.1057 C   0  0  0  0  0  0  0  0  0  0  0  0
  -10.3003  -26.1399   13.1193 C   0  0  0  0  0  0  0  0  0  0  0  0
   -9.2223  -26.2937   12.2939 N   0  0  0  0  0  0  0  0  0  0  0  0
   -8.9915  -25.0976   11.7987 C   0  0  0  0  0  0  0  0  0  0  0  0
   -9.6258  -19.6274   10.9710 H   0  0  0  0  0  0  0  0  0  0  0  0
   -8.4740  -19.7095    9.5853 H   0  0  0  0  0  0  0  0  0  0  0  0
   -9.1571  -21.0422   10.0489 H   0  0  0  0  0  0  0  0  0  0  0  0
   -8.2018  -19.5122   12.1953 H   0  0  0  0  0  0  0  0  0  0  0  0
   -7.6547  -21.6388   14.0022 H   0  0  0  0  0  0  0  0  0  0  0  0
   -6.1573  -21.4552   13.0676 H   0  0  0  0  0  0  0  0  0  0  0  0
   -7.3534  -22.5988   12.6949 H   0  0  0  0  0  0  0  0  0  0  0  0
   -6.7364  -18.6919   11.3295 H   0  0  0  0  0  0  0  0  0  0  0  0
   -6.1863  -19.2247   12.7934 H   0  0  0  0  0  0  0  0  0  0  0  0
   -3.8211  -20.2189   12.2624 H   0  0  0  0  0  0  0  0  0  0  0  0
   -4.1865  -20.5197   10.5118 H   0  0  0  0  0  0  0  0  0  0  0  0
   -3.3743  -17.8060    9.5583 H   0  0  0  0  0  0  0  0  0  0  0  0
   -0.9001  -16.8281    8.9958 H   0  0  0  0  0  0  0  0  0  0  0  0
    1.4181  -15.7603    9.5509 H   0  0  0  0  0  0  0  0  0  0  0  0
    1.4235  -17.1320   10.5345 H   0  0  0  0  0  0  0  0  0  0  0  0
    0.4723  -16.1655   12.4037 H   0  0  0  0  0  0  0  0  0  0  0  0
    1.1201  -14.7110   12.2253 H   0  0  0  0  0  0  0  0  0  0  0  0
   -0.7623  -14.3854   12.4456 H   0  0  0  0  0  0  0  0  0  0  0  0
   -0.3230  -13.5629   11.1478 H   0  0  0  0  0  0  0  0  0  0  0  0
  -11.2523  -22.7736   11.8991 H   0  0  0  0  0  0  0  0  0  0  0  0
   -9.3893  -23.3692    9.6347 H   0  0  0  0  0  0  0  0  0  0  0  0
  -11.0223  -23.9231    9.9009 H   0  0  0  0  0  0  0  0  0  0  0  0
  -10.7349  -22.2334    9.5715 H   0  0  0  0  0  0  0  0  0  0  0  0
  -11.5804  -24.3536   13.5673 H   0  0  0  0  0  0  0  0  0  0  0  0
  -10.7196  -26.9778   13.6598 H   0  0  0  0  0  0  0  0  0  0  0  0
   -8.2116  -24.8610   11.0903 H   0  0  0  0  0  0  0  0  0  0  0  0
  1  2  1  0
  2  3  1  0
  2  4  1  0
  4  5  1  0
  5  6  1  0
  6  7  1  0
  7  8  1  0
  8  9  2  0
  8 10  1  0
 10 11  1  0
 11 12  1  0
 12 13  1  0
 13 14  1  0
  4 15  1  0
 15 16  2  0
 15 17  1  0
 17 18  1  0
 17 19  1  0
 19 20  1  0
 20 21  2  0
 21 22  1  0
 22 23  2  0
 14 10  1  0
 23 19  1  0
  1 24  1  0
  1 25  1  0
  1 26  1  0
  2 27  1  0
  3 28  1  0
  3 29  1  0
  3 30  1  0
  5 31  1  0
  5 32  1  0
  6 33  1  0
  6 34  1  0
  7 35  1  0
 10 36  1  0
 11 37  1  0
 11 38  1  0
 12 39  1  0
 12 40  1  0
 13 41  1  0
 13 42  1  0
 17 43  1  0
 18 44  1  0
 18 45  1  0
 18 46  1  0
 20 47  1  0
 21 48  1  0
 23 49  1  0
M  END
>  <Energy>  (1167) 
1640.3094635958469

>  <compound_id>  (1167) 
6457

>  <target_id>  (1167) 
1

>  <reference_id>  (1167) 
114

>  <inspiration_ids>  (1167) 
[114, 28]

>  <energy_score>  (1167) 
1550.1619525919552

>  <distance_score>  (1167) 
11.83115303358305

>  <path>  (1167) 
/opt/xchem-fragalysis-2/maxwin/BulkDock/SCRATCH/511018/C6457-P114/C6457-P114.minimised.mol

>  <scratch_subdir>  (1167) 
/opt/xchem-fragalysis-2/maxwin/BulkDock/SCRATCH/511018/C6457-P114

>  <fragmenstein_runtime>  (1167) 
37.16632843017578

>  <fragmenstein_outcome>  (1167) 
too moved

>  <fragmenstein_mode>  (1167) 
expansion

>  <fragmenstein_error>  (1167) 


$$$$
C6457-P28
     RDKit          3D

 49 50  0  0  0  0  0  0  0  0999 V2000
   -7.7065  -16.7958   14.1589 C   0  0  0  0  0  0  0  0  0  0  0  0
   -6.0073  -17.7247   13.5606 C   0  0  0  0  0  0  0  0  0  0  0  0
   -6.8240  -18.1325   12.2358 C   0  0  0  0  0  0  0  0  0  0  0  0
   -5.6157  -18.7746   12.6922 N   0  0  0  0  0  0  0  0  0  0  0  0
   -5.5744  -17.1728   14.0000 C   0  0  0  0  0  0  0  0  0  0  0  0
   -4.1814  -16.6384   15.4225 C   0  0  0  0  0  0  0  0  0  0  0  0
   -4.0998  -16.1702   17.0263 N   0  0  0  0  0  0  0  0  0  0  0  0
   -3.5035  -14.9809   17.6525 C   0  0  0  0  0  0  0  0  0  0  0  0
   -2.8552  -14.0896   17.1754 O   0  0  0  0  0  0  0  0  0  0  0  0
   -3.8297  -14.7267   19.1810 C   0  0  0  0  0  0  0  0  0  0  0  0
   -3.4217  -13.2577   19.5306 C   0  0  0  0  0  0  0  0  0  0  0  0
   -3.1474  -13.2560   21.0052 C   0  0  0  0  0  0  0  0  0  0  0  0
   -2.8726  -14.7071   21.3200 C   0  0  0  0  0  0  0  0  0  0  0  0
   -3.2549  -15.5236   20.1991 O   0  0  0  0  0  0  0  0  0  0  0  0
   -6.4118  -20.4131   12.6655 C   0  0  0  0  0  0  0  0  0  0  0  0
   -7.2101  -20.9159   13.3658 O   0  0  0  0  0  0  0  0  0  0  0  0
   -6.0318  -21.1299   11.5009 C   0  0  0  0  0  0  0  0  0  0  0  0
   -7.8023  -20.7259   11.2010 C   0  0  0  0  0  0  0  0  0  0  0  0
   -5.6782  -22.5633   11.4591 N   0  0  0  0  0  0  0  0  0  0  0  0
   -4.7325  -23.1337   10.6312 C   0  0  0  0  0  0  0  0  0  0  0  0
   -4.9352  -24.4962   10.7029 C   0  0  0  0  0  0  0  0  0  0  0  0
   -6.0027  -24.7950   11.5000 N   0  0  0  0  0  0  0  0  0  0  0  0
   -6.4362  -23.6254   11.8985 C   0  0  0  0  0  0  0  0  0  0  0  0
   -8.6629  -17.0019   13.6653 H   0  0  0  0  0  0  0  0  0  0  0  0
   -7.8816  -16.5353   15.2253 H   0  0  0  0  0  0  0  0  0  0  0  0
   -7.4482  -15.7435   14.2227 H   0  0  0  0  0  0  0  0  0  0  0  0
   -5.8089  -16.8457   12.4684 H   0  0  0  0  0  0  0  0  0  0  0  0
   -6.6965  -18.9345   11.3947 H   0  0  0  0  0  0  0  0  0  0  0  0
   -7.8996  -18.0613   12.5393 H   0  0  0  0  0  0  0  0  0  0  0  0
   -6.6009  -17.4353   11.3582 H   0  0  0  0  0  0  0  0  0  0  0  0
   -5.7114  -16.0057   13.6148 H   0  0  0  0  0  0  0  0  0  0  0  0
   -4.4338  -16.7870   13.8486 H   0  0  0  0  0  0  0  0  0  0  0  0
   -3.5902  -17.5410   15.5590 H   0  0  0  0  0  0  0  0  0  0  0  0
   -5.1506  -16.3290   15.7884 H   0  0  0  0  0  0  0  0  0  0  0  0
   -4.5097  -16.7541   17.7474 H   0  0  0  0  0  0  0  0  0  0  0  0
   -4.9194  -14.8125   19.2806 H   0  0  0  0  0  0  0  0  0  0  0  0
   -2.5144  -12.9225   19.0201 H   0  0  0  0  0  0  0  0  0  0  0  0
   -4.2113  -12.5521   19.2497 H   0  0  0  0  0  0  0  0  0  0  0  0
   -4.0388  -12.9247   21.5505 H   0  0  0  0  0  0  0  0  0  0  0  0
   -2.3281  -12.5939   21.2992 H   0  0  0  0  0  0  0  0  0  0  0  0
   -3.4616  -15.0308   22.1852 H   0  0  0  0  0  0  0  0  0  0  0  0
   -1.8308  -14.9140   21.5657 H   0  0  0  0  0  0  0  0  0  0  0  0
   -5.4210  -20.6225   10.7768 H   0  0  0  0  0  0  0  0  0  0  0  0
   -8.4715  -21.5134   11.5878 H   0  0  0  0  0  0  0  0  0  0  0  0
   -8.2913  -19.9211   11.7471 H   0  0  0  0  0  0  0  0  0  0  0  0
   -8.0003  -20.3768   10.1968 H   0  0  0  0  0  0  0  0  0  0  0  0
   -4.0353  -22.5398   10.0617 H   0  0  0  0  0  0  0  0  0  0  0  0
   -4.3771  -25.2717   10.1951 H   0  0  0  0  0  0  0  0  0  0  0  0
   -7.3469  -23.4322   12.4332 H   0  0  0  0  0  0  0  0  0  0  0  0
  1  2  1  0
  2  3  1  0
  2  4  1  0
  4  5  1  0
  5  6  1  0
  6  7  1  0
  7  8  1  0
  8  9  2  0
  8 10  1  0
 10 11  1  0
 11 12  1  0
 12 13  1  0
 13 14  1  0
  4 15  1  0
 15 16  2  0
 15 17  1  0
 17 18  1  0
 17 19  1  0
 19 20  1  0
 20 21  2  0
 21 22  1  0
 22 23  2  0
 14 10  1  0
 23 19  1  0
  1 24  1  0
  1 25  1  0
  1 26  1  0
  2 27  1  0
  3 28  1  0
  3 29  1  0
  3 30  1  0
  5 31  1  0
  5 32  1  0
  6 33  1  0
  6 34  1  0
  7 35  1  0
 10 36  1  0
 11 37  1  0
 11 38  1  0
 12 39  1  0
 12 40  1  0
 13 41  1  0
 13 42  1  0
 17 43  1  0
 18 44  1  0
 18 45  1  0
 18 46  1  0
 20 47  1  0
 21 48  1  0
 23 49  1  0
M  END
>  <Energy>  (1168) 
1419.178846562902

>  <compound_id>  (1168) 
6457

>  <target_id>  (1168) 
1

>  <reference_id>  (1168) 
28

>  <inspiration_ids>  (1168) 
[114, 28]

>  <energy_score>  (1168) 
1329.0313355590044

>  <distance_score>  (1168) 
12.942235704777731

>  <path>  (1168) 
/opt/xchem-fragalysis-2/maxwin/BulkDock/SCRATCH/511018/C6457-P28/C6457-P28.minimised.mol

>  <scratch_subdir>  (1168) 
/opt/xchem-fragalysis-2/maxwin/BulkDock/SCRATCH/511018/C6457-P28

>  <fragmenstein_runtime>  (1168) 
23.668171405792236

>  <fragmenstein_outcome>  (1168) 
too moved

>  <fragmenstein_mode>  (1168) 
expansion

>  <fragmenstein_error>  (1168) 


$$$$
C6462-P24
     RDKit          3D

 45 48  0  0  0  0  0  0  0  0999 V2000
   -9.4593  -11.5955   10.7473 C   0  0  0  0  0  0  0  0  0  0  0  0
   -9.6320  -11.6071   12.2145 N   0  0  0  0  0  0  0  0  0  0  0  0
   -9.1004  -12.7513   12.8572 C   0  0  0  0  0  0  0  0  0  0  0  0
   -9.2329  -12.9851   14.3686 C   0  0  0  0  0  0  0  0  0  0  0  0
   -8.7886  -11.9742   15.3626 N   0  0  0  0  0  0  0  0  0  0  0  0
   -8.3616  -12.5403   17.2063 C   0  0  0  0  0  0  0  0  0  0  0  0
   -7.4512  -12.3211   18.5151 C   0  0  0  0  0  0  0  0  0  0  0  0
   -7.9843  -13.5683   19.8479 C   0  0  0  0  0  0  0  0  0  0  0  0
   -8.4945  -15.4075   20.3093 N   0  0  0  0  0  0  0  0  0  0  0  0
   -7.2434  -16.6930   20.7055 C   0  0  0  0  0  0  0  0  0  0  0  0
   -6.5224  -17.4305   19.7537 C   0  0  0  0  0  0  0  0  0  0  0  0
   -5.5987  -18.5615   20.0313 C   0  0  0  0  0  0  0  0  0  0  0  0
   -5.7120  -19.3717   21.0176 N   0  0  0  0  0  0  0  0  0  0  0  0
   -6.7685  -19.0280   21.7695 C   0  0  0  0  0  0  0  0  0  0  0  0
   -7.6856  -19.7999   22.2975 N   0  0  0  0  0  0  0  0  0  0  0  0
   -8.4169  -18.8923   22.9716 C   0  0  0  0  0  0  0  0  0  0  0  0
   -7.6834  -17.7683   23.1708 C   0  0  0  0  0  0  0  0  0  0  0  0
   -7.2522  -17.6832   21.8725 N   0  0  0  0  0  0  0  0  0  0  0  0
   -9.4200  -15.0384   19.1669 C   0  0  0  0  0  0  0  0  0  0  0  0
   -9.6764  -13.0265   18.5390 C   0  0  0  0  0  0  0  0  0  0  0  0
   -8.5982  -10.6680   14.3648 C   0  0  0  0  0  0  0  0  0  0  0  0
   -7.8984   -9.6666   14.5618 O   0  0  0  0  0  0  0  0  0  0  0  0
   -9.3037  -10.4466   12.9955 C   0  0  0  0  0  0  0  0  0  0  0  0
  -10.2477  -12.2075   10.2896 H   0  0  0  0  0  0  0  0  0  0  0  0
   -8.5418  -12.0805   10.3949 H   0  0  0  0  0  0  0  0  0  0  0  0
   -9.5343  -10.5892   10.3185 H   0  0  0  0  0  0  0  0  0  0  0  0
   -9.6665  -13.5743   12.4344 H   0  0  0  0  0  0  0  0  0  0  0  0
   -8.0414  -12.7348   12.6199 H   0  0  0  0  0  0  0  0  0  0  0  0
  -10.1908  -13.2506   14.6985 H   0  0  0  0  0  0  0  0  0  0  0  0
   -8.7371  -13.9428   14.5368 H   0  0  0  0  0  0  0  0  0  0  0  0
   -7.8099  -13.4458   16.9325 H   0  0  0  0  0  0  0  0  0  0  0  0
   -6.3739  -12.3484   18.3422 H   0  0  0  0  0  0  0  0  0  0  0  0
   -7.6293  -11.3255   18.8858 H   0  0  0  0  0  0  0  0  0  0  0  0
   -8.9196  -13.2679   20.2927 H   0  0  0  0  0  0  0  0  0  0  0  0
   -8.0851  -13.9276   18.8603 H   0  0  0  0  0  0  0  0  0  0  0  0
   -6.7866  -17.4356   18.7134 H   0  0  0  0  0  0  0  0  0  0  0  0
   -4.7957  -18.7055   19.2896 H   0  0  0  0  0  0  0  0  0  0  0  0
   -9.4175  -19.0887   23.3192 H   0  0  0  0  0  0  0  0  0  0  0  0
   -7.7144  -16.9750   23.8823 H   0  0  0  0  0  0  0  0  0  0  0  0
   -8.9244  -15.6726   18.3876 H   0  0  0  0  0  0  0  0  0  0  0  0
  -10.3481  -15.5033   19.3827 H   0  0  0  0  0  0  0  0  0  0  0  0
   -9.4879  -12.1628   19.1228 H   0  0  0  0  0  0  0  0  0  0  0  0
  -10.5877  -12.7722   18.0213 H   0  0  0  0  0  0  0  0  0  0  0  0
  -10.1573   -9.8174   13.2316 H   0  0  0  0  0  0  0  0  0  0  0  0
   -8.7271   -9.7342   12.4150 H   0  0  0  0  0  0  0  0  0  0  0  0
  1  2  1  0
  2  3  1  0
  3  4  1  0
  4  5  1  0
  5  6  1  0
  6  7  1  0
  7  8  1  0
  8  9  1  0
  9 10  1  0
 10 11  2  0
 11 12  1  0
 12 13  2  0
 13 14  1  0
 14 15  2  0
 15 16  1  0
 16 17  2  0
 17 18  1  0
  9 19  1  0
 19 20  1  0
  5 21  1  0
 21 22  2  0
 21 23  1  0
 23  2  1  0
 20  6  1  0
 18 10  1  0
 18 14  1  0
  1 24  1  0
  1 25  1  0
  1 26  1  0
  3 27  1  0
  3 28  1  0
  4 29  1  0
  4 30  1  0
  6 31  1  0
  7 32  1  0
  7 33  1  0
  8 34  1  0
  8 35  1  0
 11 36  1  0
 12 37  1  0
 16 38  1  0
 17 39  1  0
 19 40  1  0
 19 41  1  0
 20 42  1  0
 20 43  1  0
 23 44  1  0
 23 45  1  0
M  END
>  <Energy>  (1169) 
875.83677040914438

>  <compound_id>  (1169) 
6462

>  <target_id>  (1169) 
1

>  <reference_id>  (1169) 
24

>  <inspiration_ids>  (1169) 
[24, 107]

>  <energy_score>  (1169) 
712.4367079827899

>  <distance_score>  (1169) 
11.935714744753295

>  <path>  (1169) 
/opt/xchem-fragalysis-2/maxwin/BulkDock/SCRATCH/511018/C6462-P24/C6462-P24.minimised.mol

>  <scratch_subdir>  (1169) 
/opt/xchem-fragalysis-2/maxwin/BulkDock/SCRATCH/511018/C6462-P24

>  <fragmenstein_runtime>  (1169) 
14.423563241958618

>  <fragmenstein_outcome>  (1169) 
too moved

>  <fragmenstein_mode>  (1169) 
expansion

>  <fragmenstein_error>  (1169) 


$$$$
C6462-P107
     RDKit          3D

 45 48  0  0  0  0  0  0  0  0999 V2000
   -9.4081  -11.8069   10.5869 C   0  0  0  0  0  0  0  0  0  0  0  0
   -9.5821  -12.2644   11.9759 N   0  0  0  0  0  0  0  0  0  0  0  0
  -10.2507  -13.5204   12.1337 C   0  0  0  0  0  0  0  0  0  0  0  0
  -10.2221  -14.6699   13.3935 C   0  0  0  0  0  0  0  0  0  0  0  0
   -8.8977  -14.4151   14.4601 N   0  0  0  0  0  0  0  0  0  0  0  0
   -7.6893  -15.7280   15.2750 C   0  0  0  0  0  0  0  0  0  0  0  0
   -6.6441  -15.3489   16.3754 C   0  0  0  0  0  0  0  0  0  0  0  0
   -5.1233  -16.3469   16.9863 C   0  0  0  0  0  0  0  0  0  0  0  0
   -5.4441  -17.5155   18.2644 N   0  0  0  0  0  0  0  0  0  0  0  0
   -4.7351  -18.1694   19.3588 C   0  0  0  0  0  0  0  0  0  0  0  0
   -3.4365  -17.9299   19.6150 C   0  0  0  0  0  0  0  0  0  0  0  0
   -2.8879  -18.3915   20.9220 C   0  0  0  0  0  0  0  0  0  0  0  0
   -3.5067  -19.0124   21.8703 N   0  0  0  0  0  0  0  0  0  0  0  0
   -4.7892  -19.3581   21.5978 C   0  0  0  0  0  0  0  0  0  0  0  0
   -5.5981  -20.0533   22.3725 N   0  0  0  0  0  0  0  0  0  0  0  0
   -6.6830  -20.3428   21.6185 C   0  0  0  0  0  0  0  0  0  0  0  0
   -6.5523  -19.7903   20.3715 C   0  0  0  0  0  0  0  0  0  0  0  0
   -5.3912  -19.0343   20.3616 N   0  0  0  0  0  0  0  0  0  0  0  0
   -7.0014  -17.6253   18.2216 C   0  0  0  0  0  0  0  0  0  0  0  0
   -8.0393  -16.8107   16.8727 C   0  0  0  0  0  0  0  0  0  0  0  0
   -8.9194  -12.9584   14.1615 C   0  0  0  0  0  0  0  0  0  0  0  0
   -9.4279  -12.1328   14.9007 O   0  0  0  0  0  0  0  0  0  0  0  0
   -8.4669  -12.2707   12.8646 C   0  0  0  0  0  0  0  0  0  0  0  0
   -8.5194  -12.2237   10.1067 H   0  0  0  0  0  0  0  0  0  0  0  0
  -10.2570  -12.1028    9.9561 H   0  0  0  0  0  0  0  0  0  0  0  0
   -9.3958  -10.7131   10.5292 H   0  0  0  0  0  0  0  0  0  0  0  0
  -10.2799  -13.8316   11.1303 H   0  0  0  0  0  0  0  0  0  0  0  0
  -11.2730  -13.3210   12.1399 H   0  0  0  0  0  0  0  0  0  0  0  0
  -11.2061  -14.7006   13.8316 H   0  0  0  0  0  0  0  0  0  0  0  0
  -10.2049  -15.7055   12.9956 H   0  0  0  0  0  0  0  0  0  0  0  0
   -7.3127  -16.2134   14.3819 H   0  0  0  0  0  0  0  0  0  0  0  0
   -7.2706  -15.1302   17.2045 H   0  0  0  0  0  0  0  0  0  0  0  0
   -6.5137  -14.2797   16.3922 H   0  0  0  0  0  0  0  0  0  0  0  0
   -4.5647  -15.5976   17.3737 H   0  0  0  0  0  0  0  0  0  0  0  0
   -4.4350  -16.7362   16.2284 H   0  0  0  0  0  0  0  0  0  0  0  0
   -2.8139  -17.3055   18.9927 H   0  0  0  0  0  0  0  0  0  0  0  0
   -1.8312  -18.1208   21.0876 H   0  0  0  0  0  0  0  0  0  0  0  0
   -7.4707  -20.9916   21.9748 H   0  0  0  0  0  0  0  0  0  0  0  0
   -7.1530  -19.9596   19.5020 H   0  0  0  0  0  0  0  0  0  0  0  0
   -7.1032  -17.1618   19.1732 H   0  0  0  0  0  0  0  0  0  0  0  0
   -7.1809  -18.6825   18.1385 H   0  0  0  0  0  0  0  0  0  0  0  0
   -8.5774  -17.6371   16.5343 H   0  0  0  0  0  0  0  0  0  0  0  0
   -8.7090  -16.2641   17.5328 H   0  0  0  0  0  0  0  0  0  0  0  0
   -8.3311  -11.2310   13.1758 H   0  0  0  0  0  0  0  0  0  0  0  0
   -7.5107  -12.5823   12.4736 H   0  0  0  0  0  0  0  0  0  0  0  0
  1  2  1  0
  2  3  1  0
  3  4  1  0
  4  5  1  0
  5  6  1  0
  6  7  1  0
  7  8  1  0
  8  9  1  0
  9 10  1  0
 10 11  2  0
 11 12  1  0
 12 13  2  0
 13 14  1  0
 14 15  2  0
 15 16  1  0
 16 17  2  0
 17 18  1  0
  9 19  1  0
 19 20  1  0
  5 21  1  0
 21 22  2  0
 21 23  1  0
 23  2  1  0
 20  6  1  0
 18 10  1  0
 18 14  1  0
  1 24  1  0
  1 25  1  0
  1 26  1  0
  3 27  1  0
  3 28  1  0
  4 29  1  0
  4 30  1  0
  6 31  1  0
  7 32  1  0
  7 33  1  0
  8 34  1  0
  8 35  1  0
 11 36  1  0
 12 37  1  0
 16 38  1  0
 17 39  1  0
 19 40  1  0
 19 41  1  0
 20 42  1  0
 20 43  1  0
 23 44  1  0
 23 45  1  0
M  END
>  <Energy>  (1170) 
575.73383874891613

>  <compound_id>  (1170) 
6462

>  <target_id>  (1170) 
1

>  <reference_id>  (1170) 
107

>  <inspiration_ids>  (1170) 
[24, 107]

>  <energy_score>  (1170) 
412.3337763225608

>  <distance_score>  (1170) 
12.979960796347836

>  <path>  (1170) 
/opt/xchem-fragalysis-2/maxwin/BulkDock/SCRATCH/511018/C6462-P107/C6462-P107.minimised.mol

>  <scratch_subdir>  (1170) 
/opt/xchem-fragalysis-2/maxwin/BulkDock/SCRATCH/511018/C6462-P107

>  <fragmenstein_runtime>  (1170) 
33.79505491256714

>  <fragmenstein_outcome>  (1170) 
too moved

>  <fragmenstein_mode>  (1170) 
expansion

>  <fragmenstein_error>  (1170) 


$$$$
C6462-P24
     RDKit          3D

 45 48  0  0  0  0  0  0  0  0999 V2000
   -9.4593  -11.5955   10.7473 C   0  0  0  0  0  0  0  0  0  0  0  0
   -9.6320  -11.6071   12.2145 N   0  0  0  0  0  0  0  0  0  0  0  0
   -9.1004  -12.7513   12.8572 C   0  0  0  0  0  0  0  0  0  0  0  0
   -9.2329  -12.9851   14.3686 C   0  0  0  0  0  0  0  0  0  0  0  0
   -8.7886  -11.9742   15.3626 N   0  0  0  0  0  0  0  0  0  0  0  0
   -8.3616  -12.5403   17.2063 C   0  0  0  0  0  0  0  0  0  0  0  0
   -7.4512  -12.3211   18.5151 C   0  0  0  0  0  0  0  0  0  0  0  0
   -7.9843  -13.5683   19.8479 C   0  0  0  0  0  0  0  0  0  0  0  0
   -8.4945  -15.4075   20.3093 N   0  0  0  0  0  0  0  0  0  0  0  0
   -7.2434  -16.6930   20.7055 C   0  0  0  0  0  0  0  0  0  0  0  0
   -6.5224  -17.4305   19.7537 C   0  0  0  0  0  0  0  0  0  0  0  0
   -5.5987  -18.5615   20.0313 C   0  0  0  0  0  0  0  0  0  0  0  0
   -5.7120  -19.3717   21.0176 N   0  0  0  0  0  0  0  0  0  0  0  0
   -6.7685  -19.0280   21.7695 C   0  0  0  0  0  0  0  0  0  0  0  0
   -7.6856  -19.7999   22.2975 N   0  0  0  0  0  0  0  0  0  0  0  0
   -8.4169  -18.8923   22.9716 C   0  0  0  0  0  0  0  0  0  0  0  0
   -7.6834  -17.7683   23.1708 C   0  0  0  0  0  0  0  0  0  0  0  0
   -7.2522  -17.6832   21.8725 N   0  0  0  0  0  0  0  0  0  0  0  0
   -9.4200  -15.0384   19.1669 C   0  0  0  0  0  0  0  0  0  0  0  0
   -9.6764  -13.0265   18.5390 C   0  0  0  0  0  0  0  0  0  0  0  0
   -8.5982  -10.6680   14.3648 C   0  0  0  0  0  0  0  0  0  0  0  0
   -7.8984   -9.6666   14.5618 O   0  0  0  0  0  0  0  0  0  0  0  0
   -9.3037  -10.4466   12.9955 C   0  0  0  0  0  0  0  0  0  0  0  0
  -10.2477  -12.2075   10.2896 H   0  0  0  0  0  0  0  0  0  0  0  0
   -8.5418  -12.0805   10.3949 H   0  0  0  0  0  0  0  0  0  0  0  0
   -9.5343  -10.5892   10.3185 H   0  0  0  0  0  0  0  0  0  0  0  0
   -9.6665  -13.5743   12.4344 H   0  0  0  0  0  0  0  0  0  0  0  0
   -8.0414  -12.7348   12.6199 H   0  0  0  0  0  0  0  0  0  0  0  0
  -10.1908  -13.2506   14.6985 H   0  0  0  0  0  0  0  0  0  0  0  0
   -8.7371  -13.9428   14.5368 H   0  0  0  0  0  0  0  0  0  0  0  0
   -7.8099  -13.4458   16.9325 H   0  0  0  0  0  0  0  0  0  0  0  0
   -6.3739  -12.3484   18.3422 H   0  0  0  0  0  0  0  0  0  0  0  0
   -7.6293  -11.3255   18.8858 H   0  0  0  0  0  0  0  0  0  0  0  0
   -8.9196  -13.2679   20.2927 H   0  0  0  0  0  0  0  0  0  0  0  0
   -8.0851  -13.9276   18.8603 H   0  0  0  0  0  0  0  0  0  0  0  0
   -6.7866  -17.4356   18.7134 H   0  0  0  0  0  0  0  0  0  0  0  0
   -4.7957  -18.7055   19.2896 H   0  0  0  0  0  0  0  0  0  0  0  0
   -9.4175  -19.0887   23.3192 H   0  0  0  0  0  0  0  0  0  0  0  0
   -7.7144  -16.9750   23.8823 H   0  0  0  0  0  0  0  0  0  0  0  0
   -8.9244  -15.6726   18.3876 H   0  0  0  0  0  0  0  0  0  0  0  0
  -10.3481  -15.5033   19.3827 H   0  0  0  0  0  0  0  0  0  0  0  0
   -9.4879  -12.1628   19.1228 H   0  0  0  0  0  0  0  0  0  0  0  0
  -10.5877  -12.7722   18.0213 H   0  0  0  0  0  0  0  0  0  0  0  0
  -10.1573   -9.8174   13.2316 H   0  0  0  0  0  0  0  0  0  0  0  0
   -8.7271   -9.7342   12.4150 H   0  0  0  0  0  0  0  0  0  0  0  0
  1  2  1  0
  2  3  1  0
  3  4  1  0
  4  5  1  0
  5  6  1  0
  6  7  1  0
  7  8  1  0
  8  9  1  0
  9 10  1  0
 10 11  2  0
 11 12  1  0
 12 13  2  0
 13 14  1  0
 14 15  2  0
 15 16  1  0
 16 17  2  0
 17 18  1  0
  9 19  1  0
 19 20  1  0
  5 21  1  0
 21 22  2  0
 21 23  1  0
 23  2  1  0
 20  6  1  0
 18 10  1  0
 18 14  1  0
  1 24  1  0
  1 25  1  0
  1 26  1  0
  3 27  1  0
  3 28  1  0
  4 29  1  0
  4 30  1  0
  6 31  1  0
  7 32  1  0
  7 33  1  0
  8 34  1  0
  8 35  1  0
 11 36  1  0
 12 37  1  0
 16 38  1  0
 17 39  1  0
 19 40  1  0
 19 41  1  0
 20 42  1  0
 20 43  1  0
 23 44  1  0
 23 45  1  0
M  END
>  <Energy>  (1171) 
875.83677040914438

>  <compound_id>  (1171) 
6462

>  <target_id>  (1171) 
1

>  <reference_id>  (1171) 
24

>  <inspiration_ids>  (1171) 
[24, 107]

>  <energy_score>  (1171) 
712.4367079827899

>  <distance_score>  (1171) 
11.935714744753295

>  <path>  (1171) 
/opt/xchem-fragalysis-2/maxwin/BulkDock/SCRATCH/511018/C6462-P24/C6462-P24.minimised.mol

>  <scratch_subdir>  (1171) 
/opt/xchem-fragalysis-2/maxwin/BulkDock/SCRATCH/511018/C6462-P24

>  <fragmenstein_runtime>  (1171) 
15.048670530319214

>  <fragmenstein_outcome>  (1171) 
too moved

>  <fragmenstein_mode>  (1171) 
expansion

>  <fragmenstein_error>  (1171) 


$$$$
C6462-P107
     RDKit          3D

 45 48  0  0  0  0  0  0  0  0999 V2000
   -9.4081  -11.8069   10.5869 C   0  0  0  0  0  0  0  0  0  0  0  0
   -9.5821  -12.2644   11.9759 N   0  0  0  0  0  0  0  0  0  0  0  0
  -10.2507  -13.5204   12.1337 C   0  0  0  0  0  0  0  0  0  0  0  0
  -10.2221  -14.6699   13.3935 C   0  0  0  0  0  0  0  0  0  0  0  0
   -8.8977  -14.4151   14.4601 N   0  0  0  0  0  0  0  0  0  0  0  0
   -7.6893  -15.7280   15.2750 C   0  0  0  0  0  0  0  0  0  0  0  0
   -6.6441  -15.3489   16.3754 C   0  0  0  0  0  0  0  0  0  0  0  0
   -5.1233  -16.3469   16.9863 C   0  0  0  0  0  0  0  0  0  0  0  0
   -5.4441  -17.5155   18.2644 N   0  0  0  0  0  0  0  0  0  0  0  0
   -4.7351  -18.1694   19.3588 C   0  0  0  0  0  0  0  0  0  0  0  0
   -3.4365  -17.9299   19.6150 C   0  0  0  0  0  0  0  0  0  0  0  0
   -2.8879  -18.3915   20.9220 C   0  0  0  0  0  0  0  0  0  0  0  0
   -3.5067  -19.0124   21.8703 N   0  0  0  0  0  0  0  0  0  0  0  0
   -4.7892  -19.3581   21.5978 C   0  0  0  0  0  0  0  0  0  0  0  0
   -5.5981  -20.0533   22.3725 N   0  0  0  0  0  0  0  0  0  0  0  0
   -6.6830  -20.3428   21.6185 C   0  0  0  0  0  0  0  0  0  0  0  0
   -6.5523  -19.7903   20.3715 C   0  0  0  0  0  0  0  0  0  0  0  0
   -5.3912  -19.0343   20.3616 N   0  0  0  0  0  0  0  0  0  0  0  0
   -7.0014  -17.6253   18.2216 C   0  0  0  0  0  0  0  0  0  0  0  0
   -8.0393  -16.8107   16.8727 C   0  0  0  0  0  0  0  0  0  0  0  0
   -8.9194  -12.9584   14.1615 C   0  0  0  0  0  0  0  0  0  0  0  0
   -9.4279  -12.1328   14.9007 O   0  0  0  0  0  0  0  0  0  0  0  0
   -8.4669  -12.2707   12.8646 C   0  0  0  0  0  0  0  0  0  0  0  0
   -8.5194  -12.2237   10.1067 H   0  0  0  0  0  0  0  0  0  0  0  0
  -10.2570  -12.1028    9.9561 H   0  0  0  0  0  0  0  0  0  0  0  0
   -9.3958  -10.7131   10.5292 H   0  0  0  0  0  0  0  0  0  0  0  0
  -10.2799  -13.8316   11.1303 H   0  0  0  0  0  0  0  0  0  0  0  0
  -11.2730  -13.3210   12.1399 H   0  0  0  0  0  0  0  0  0  0  0  0
  -11.2061  -14.7006   13.8316 H   0  0  0  0  0  0  0  0  0  0  0  0
  -10.2049  -15.7055   12.9956 H   0  0  0  0  0  0  0  0  0  0  0  0
   -7.3127  -16.2134   14.3819 H   0  0  0  0  0  0  0  0  0  0  0  0
   -7.2706  -15.1302   17.2045 H   0  0  0  0  0  0  0  0  0  0  0  0
   -6.5137  -14.2797   16.3922 H   0  0  0  0  0  0  0  0  0  0  0  0
   -4.5647  -15.5976   17.3737 H   0  0  0  0  0  0  0  0  0  0  0  0
   -4.4350  -16.7362   16.2284 H   0  0  0  0  0  0  0  0  0  0  0  0
   -2.8139  -17.3055   18.9927 H   0  0  0  0  0  0  0  0  0  0  0  0
   -1.8312  -18.1208   21.0876 H   0  0  0  0  0  0  0  0  0  0  0  0
   -7.4707  -20.9916   21.9748 H   0  0  0  0  0  0  0  0  0  0  0  0
   -7.1530  -19.9596   19.5020 H   0  0  0  0  0  0  0  0  0  0  0  0
   -7.1032  -17.1618   19.1732 H   0  0  0  0  0  0  0  0  0  0  0  0
   -7.1809  -18.6825   18.1385 H   0  0  0  0  0  0  0  0  0  0  0  0
   -8.5774  -17.6371   16.5343 H   0  0  0  0  0  0  0  0  0  0  0  0
   -8.7090  -16.2641   17.5328 H   0  0  0  0  0  0  0  0  0  0  0  0
   -8.3311  -11.2310   13.1758 H   0  0  0  0  0  0  0  0  0  0  0  0
   -7.5107  -12.5823   12.4736 H   0  0  0  0  0  0  0  0  0  0  0  0
  1  2  1  0
  2  3  1  0
  3  4  1  0
  4  5  1  0
  5  6  1  0
  6  7  1  0
  7  8  1  0
  8  9  1  0
  9 10  1  0
 10 11  2  0
 11 12  1  0
 12 13  2  0
 13 14  1  0
 14 15  2  0
 15 16  1  0
 16 17  2  0
 17 18  1  0
  9 19  1  0
 19 20  1  0
  5 21  1  0
 21 22  2  0
 21 23  1  0
 23  2  1  0
 20  6  1  0
 18 10  1  0
 18 14  1  0
  1 24  1  0
  1 25  1  0
  1 26  1  0
  3 27  1  0
  3 28  1  0
  4 29  1  0
  4 30  1  0
  6 31  1  0
  7 32  1  0
  7 33  1  0
  8 34  1  0
  8 35  1  0
 11 36  1  0
 12 37  1  0
 16 38  1  0
 17 39  1  0
 19 40  1  0
 19 41  1  0
 20 42  1  0
 20 43  1  0
 23 44  1  0
 23 45  1  0
M  END
>  <Energy>  (1172) 
575.73383874891613

>  <compound_id>  (1172) 
6462

>  <target_id>  (1172) 
1

>  <reference_id>  (1172) 
107

>  <inspiration_ids>  (1172) 
[24, 107]

>  <energy_score>  (1172) 
412.3337763225608

>  <distance_score>  (1172) 
12.979960796347836

>  <path>  (1172) 
/opt/xchem-fragalysis-2/maxwin/BulkDock/SCRATCH/511018/C6462-P107/C6462-P107.minimised.mol

>  <scratch_subdir>  (1172) 
/opt/xchem-fragalysis-2/maxwin/BulkDock/SCRATCH/511018/C6462-P107

>  <fragmenstein_runtime>  (1172) 
32.78458094596863

>  <fragmenstein_outcome>  (1172) 
too moved

>  <fragmenstein_mode>  (1172) 
expansion

>  <fragmenstein_error>  (1172) 


$$$$
C6484-P60
     RDKit          3D

 38 39  0  0  0  0  0  0  0  0999 V2000
   -1.8588  -22.4317   31.8352 C   0  0  0  0  0  0  0  0  0  0  0  0
   -3.1885  -22.5461   32.4847 N   0  0  0  0  0  0  0  0  0  0  0  0
   -2.4519  -21.7695   33.6145 C   0  0  0  0  0  0  0  0  0  0  0  0
   -2.4117  -20.2114   33.5409 C   0  0  0  0  0  0  0  0  0  0  0  0
   -1.3475  -19.5839   32.7761 N   0  0  0  0  0  0  0  0  0  0  0  0
    0.0866  -19.5489   32.9928 C   0  0  0  0  0  0  0  0  0  0  0  0
    0.7657  -20.0952   33.8147 O   0  0  0  0  0  0  0  0  0  0  0  0
    0.7088  -18.6182   31.9123 C   0  0  0  0  0  0  0  0  0  0  0  0
    2.1920  -18.4087   31.9526 C   0  0  0  0  0  0  0  0  0  0  0  0
    3.0295  -17.6710   31.1433 C   0  0  0  0  0  0  0  0  0  0  0  0
    4.3309  -17.7757   31.5591 N   0  0  0  0  0  0  0  0  0  0  0  0
    4.2989  -18.5686   32.6055 C   0  0  0  0  0  0  0  0  0  0  0  0
    3.0280  -18.9782   32.8830 N   0  0  0  0  0  0  0  0  0  0  0  0
   -3.8669  -23.6820   33.0267 C   0  0  0  0  0  0  0  0  0  0  0  0
   -3.4950  -24.8165   33.1753 O   0  0  0  0  0  0  0  0  0  0  0  0
   -5.3167  -23.4407   33.3736 C   0  0  0  0  0  0  0  0  0  0  0  0
   -6.1601  -24.5390   33.6075 C   0  0  0  0  0  0  0  0  0  0  0  0
   -7.5323  -24.3649   33.7917 C   0  0  0  0  0  0  0  0  0  0  0  0
   -8.0284  -23.0775   33.7749 C   0  0  0  0  0  0  0  0  0  0  0  0
   -7.2593  -21.9872   33.5592 N   0  0  0  0  0  0  0  0  0  0  0  0
   -5.9325  -22.1996   33.3368 C   0  0  0  0  0  0  0  0  0  0  0  0
   -1.6417  -21.4509   31.4124 H   0  0  0  0  0  0  0  0  0  0  0  0
   -1.9903  -23.0481   30.9324 H   0  0  0  0  0  0  0  0  0  0  0  0
   -1.0193  -22.9532   32.3175 H   0  0  0  0  0  0  0  0  0  0  0  0
   -1.5185  -22.2202   33.9943 H   0  0  0  0  0  0  0  0  0  0  0  0
   -3.1130  -21.9395   34.4811 H   0  0  0  0  0  0  0  0  0  0  0  0
   -2.3017  -19.8289   34.5621 H   0  0  0  0  0  0  0  0  0  0  0  0
   -3.3581  -19.8345   33.1396 H   0  0  0  0  0  0  0  0  0  0  0  0
   -1.5868  -18.9324   32.0380 H   0  0  0  0  0  0  0  0  0  0  0  0
    0.2362  -17.6350   32.0185 H   0  0  0  0  0  0  0  0  0  0  0  0
    0.4538  -19.0365   30.9321 H   0  0  0  0  0  0  0  0  0  0  0  0
    2.7656  -17.0701   30.2822 H   0  0  0  0  0  0  0  0  0  0  0  0
    5.1513  -18.8788   33.1948 H   0  0  0  0  0  0  0  0  0  0  0  0
    2.7387  -19.5966   33.6347 H   0  0  0  0  0  0  0  0  0  0  0  0
   -5.7451  -25.5439   33.6209 H   0  0  0  0  0  0  0  0  0  0  0  0
   -8.1925  -25.2116   33.9403 H   0  0  0  0  0  0  0  0  0  0  0  0
   -9.0874  -22.8813   33.9188 H   0  0  0  0  0  0  0  0  0  0  0  0
   -5.3793  -21.2981   33.0989 H   0  0  0  0  0  0  0  0  0  0  0  0
  1  2  1  0
  2  3  1  0
  3  4  1  0
  4  5  1  0
  5  6  1  0
  6  7  2  0
  6  8  1  0
  8  9  1  0
  9 10  2  0
 10 11  1  0
 11 12  2  0
 12 13  1  0
  2 14  1  0
 14 15  2  0
 14 16  1  0
 16 17  2  0
 17 18  1  0
 18 19  2  0
 19 20  1  0
 20 21  2  0
 13  9  1  0
 21 16  1  0
  1 22  1  0
  1 23  1  0
  1 24  1  0
  3 25  1  0
  3 26  1  0
  4 27  1  0
  4 28  1  0
  5 29  1  0
  8 30  1  0
  8 31  1  0
 10 32  1  0
 12 33  1  0
 13 34  1  0
 17 35  1  0
 18 36  1  0
 19 37  1  0
 21 38  1  0
M  END
>  <Energy>  (1173) 
117.66955871971456

>  <compound_id>  (1173) 
6484

>  <target_id>  (1173) 
1

>  <reference_id>  (1173) 
60

>  <inspiration_ids>  (1173) 
[60, 64]

>  <energy_score>  (1173) 
44.676780595797425

>  <distance_score>  (1173) 
21.537193962180883

>  <path>  (1173) 
/opt/xchem-fragalysis-2/maxwin/BulkDock/SCRATCH/511018/C6484-P60/C6484-P60.minimised.mol

>  <scratch_subdir>  (1173) 
/opt/xchem-fragalysis-2/maxwin/BulkDock/SCRATCH/511018/C6484-P60

>  <fragmenstein_runtime>  (1173) 
23.117698907852173

>  <fragmenstein_outcome>  (1173) 
too moved

>  <fragmenstein_mode>  (1173) 
expansion

>  <fragmenstein_error>  (1173) 


$$$$
C6484-P64
     RDKit          3D

 38 39  0  0  0  0  0  0  0  0999 V2000
    5.3159  -18.1635   21.8381 C   0  0  0  0  0  0  0  0  0  0  0  0
    4.4091  -18.0137   23.0048 N   0  0  0  0  0  0  0  0  0  0  0  0
    5.6737  -17.3465   23.6136 C   0  0  0  0  0  0  0  0  0  0  0  0
    5.6470  -15.7945   23.5510 C   0  0  0  0  0  0  0  0  0  0  0  0
    6.5947  -15.1920   22.6362 N   0  0  0  0  0  0  0  0  0  0  0  0
    8.0251  -15.3224   22.5377 C   0  0  0  0  0  0  0  0  0  0  0  0
    8.7886  -16.0238   23.1365 O   0  0  0  0  0  0  0  0  0  0  0  0
    8.5787  -14.3611   21.4669 C   0  0  0  0  0  0  0  0  0  0  0  0
    9.1836  -13.1503   22.0978 C   0  0  0  0  0  0  0  0  0  0  0  0
    8.6806  -12.2052   22.9654 C   0  0  0  0  0  0  0  0  0  0  0  0
    9.6192  -11.2458   23.2450 N   0  0  0  0  0  0  0  0  0  0  0  0
   10.7011  -11.6242   22.6044 C   0  0  0  0  0  0  0  0  0  0  0  0
   10.4900  -12.7747   21.8985 N   0  0  0  0  0  0  0  0  0  0  0  0
    3.8771  -18.9963   23.9125 C   0  0  0  0  0  0  0  0  0  0  0  0
    4.1044  -20.1741   24.0094 O   0  0  0  0  0  0  0  0  0  0  0  0
    2.7687  -18.4482   24.8289 C   0  0  0  0  0  0  0  0  0  0  0  0
    1.0366  -18.8245   24.8331 C   0  0  0  0  0  0  0  0  0  0  0  0
    0.2144  -18.4773   26.3534 C   0  0  0  0  0  0  0  0  0  0  0  0
    1.2753  -17.5344   27.3267 C   0  0  0  0  0  0  0  0  0  0  0  0
    2.6773  -17.4732   27.2306 N   0  0  0  0  0  0  0  0  0  0  0  0
    3.3455  -17.9533   26.0806 C   0  0  0  0  0  0  0  0  0  0  0  0
    5.6504  -17.2327   21.3655 H   0  0  0  0  0  0  0  0  0  0  0  0
    4.6630  -18.6152   21.0764 H   0  0  0  0  0  0  0  0  0  0  0  0
    6.0880  -18.9370   21.9664 H   0  0  0  0  0  0  0  0  0  0  0  0
    6.6666  -17.7866   23.4104 H   0  0  0  0  0  0  0  0  0  0  0  0
    5.6071  -17.5597   24.6835 H   0  0  0  0  0  0  0  0  0  0  0  0
    5.9044  -15.3988   24.5401 H   0  0  0  0  0  0  0  0  0  0  0  0
    4.6538  -15.4214   23.2859 H   0  0  0  0  0  0  0  0  0  0  0  0
    6.2892  -14.4384   22.0315 H   0  0  0  0  0  0  0  0  0  0  0  0
    7.7990  -14.0615   20.7583 H   0  0  0  0  0  0  0  0  0  0  0  0
    9.3241  -14.9162   20.8841 H   0  0  0  0  0  0  0  0  0  0  0  0
    7.6889  -12.1543   23.3970 H   0  0  0  0  0  0  0  0  0  0  0  0
   11.6571  -11.1173   22.6140 H   0  0  0  0  0  0  0  0  0  0  0  0
   11.1822  -13.2611   21.3434 H   0  0  0  0  0  0  0  0  0  0  0  0
    0.6430  -19.4311   24.0358 H   0  0  0  0  0  0  0  0  0  0  0  0
   -0.8467  -18.5569   26.5426 H   0  0  0  0  0  0  0  0  0  0  0  0
    0.9657  -17.0575   28.2454 H   0  0  0  0  0  0  0  0  0  0  0  0
    4.4212  -17.9417   26.2265 H   0  0  0  0  0  0  0  0  0  0  0  0
  1  2  1  0
  2  3  1  0
  3  4  1  0
  4  5  1  0
  5  6  1  0
  6  7  2  0
  6  8  1  0
  8  9  1  0
  9 10  2  0
 10 11  1  0
 11 12  2  0
 12 13  1  0
  2 14  1  0
 14 15  2  0
 14 16  1  0
 16 17  2  0
 17 18  1  0
 18 19  2  0
 19 20  1  0
 20 21  2  0
 13  9  1  0
 21 16  1  0
  1 22  1  0
  1 23  1  0
  1 24  1  0
  3 25  1  0
  3 26  1  0
  4 27  1  0
  4 28  1  0
  5 29  1  0
  8 30  1  0
  8 31  1  0
 10 32  1  0
 12 33  1  0
 13 34  1  0
 17 35  1  0
 18 36  1  0
 19 37  1  0
 21 38  1  0
M  END
>  <Energy>  (1174) 
254.18831068498503

>  <compound_id>  (1174) 
6484

>  <target_id>  (1174) 
1

>  <reference_id>  (1174) 
64

>  <inspiration_ids>  (1174) 
[60, 64]

>  <energy_score>  (1174) 
181.19553256106633

>  <distance_score>  (1174) 
15.288338418793922

>  <path>  (1174) 
/opt/xchem-fragalysis-2/maxwin/BulkDock/SCRATCH/511018/C6484-P64/C6484-P64.minimised.mol

>  <scratch_subdir>  (1174) 
/opt/xchem-fragalysis-2/maxwin/BulkDock/SCRATCH/511018/C6484-P64

>  <fragmenstein_runtime>  (1174) 
22.739826917648315

>  <fragmenstein_outcome>  (1174) 
too moved

>  <fragmenstein_mode>  (1174) 
expansion

>  <fragmenstein_error>  (1174) 


$$$$
C6485-P60
     RDKit          3D

 45 46  0  0  0  0  0  0  0  0999 V2000
   15.5012   -5.2737   16.1286 C   0  0  0  0  0  0  0  0  0  0  0  0
   13.9446   -5.5493   16.2717 C   0  0  0  0  0  0  0  0  0  0  0  0
   12.9897   -7.1095   15.9035 O   0  0  0  0  0  0  0  0  0  0  0  0
   11.5122   -7.1976   15.9765 C   0  0  0  0  0  0  0  0  0  0  0  0
   11.9502   -5.4280   16.0031 N   0  0  0  0  0  0  0  0  0  0  0  0
   11.5318   -4.2210   16.0326 C   0  0  0  0  0  0  0  0  0  0  0  0
   11.0671   -5.2134   16.5748 C   0  0  0  0  0  0  0  0  0  0  0  0
   10.5877   -6.9107   15.7636 C   0  0  0  0  0  0  0  0  0  0  0  0
    9.9518   -8.5884   15.7505 C   0  0  0  0  0  0  0  0  0  0  0  0
    9.0347  -10.1574   17.0417 C   0  0  0  0  0  0  0  0  0  0  0  0
    9.3426  -11.2761   16.6100 O   0  0  0  0  0  0  0  0  0  0  0  0
    7.8165  -10.3682   18.6813 N   0  0  0  0  0  0  0  0  0  0  0  0
    5.9739  -10.4670   18.6297 C   0  0  0  0  0  0  0  0  0  0  0  0
    6.9290  -11.9709   19.6341 C   0  0  0  0  0  0  0  0  0  0  0  0
    5.0378  -12.8409   19.3086 C   0  0  0  0  0  0  0  0  0  0  0  0
    3.4776  -13.9743   18.9551 N   0  0  0  0  0  0  0  0  0  0  0  0
    2.2577  -14.8585   20.1329 C   0  0  0  0  0  0  0  0  0  0  0  0
    2.5718  -14.6910   21.2260 O   0  0  0  0  0  0  0  0  0  0  0  0
    0.6681  -16.1212   20.1033 C   0  0  0  0  0  0  0  0  0  0  0  0
   -0.1644  -17.7084   20.2608 C   0  0  0  0  0  0  0  0  0  0  0  0
   -1.4924  -17.9589   19.8478 C   0  0  0  0  0  0  0  0  0  0  0  0
   -1.9862  -19.1754   20.2576 N   0  0  0  0  0  0  0  0  0  0  0  0
   -0.9945  -19.7197   20.9102 C   0  0  0  0  0  0  0  0  0  0  0  0
    0.0983  -18.8921   20.9506 N   0  0  0  0  0  0  0  0  0  0  0  0
   15.6543   -4.1908   16.0291 H   0  0  0  0  0  0  0  0  0  0  0  0
   16.0652   -5.5406   17.0311 H   0  0  0  0  0  0  0  0  0  0  0  0
   15.9699   -5.7483   15.2653 H   0  0  0  0  0  0  0  0  0  0  0  0
   13.6446   -5.2902   17.3083 H   0  0  0  0  0  0  0  0  0  0  0  0
   13.6574   -4.7469   15.6077 H   0  0  0  0  0  0  0  0  0  0  0  0
   11.8498   -3.7119   15.1518 H   0  0  0  0  0  0  0  0  0  0  0  0
   10.8867   -5.0056   17.6389 H   0  0  0  0  0  0  0  0  0  0  0  0
   10.6715   -6.4402   14.7091 H   0  0  0  0  0  0  0  0  0  0  0  0
    5.2425   -9.4552   18.8128 H   0  0  0  0  0  0  0  0  0  0  0  0
    5.3023   -9.6707   17.9784 H   0  0  0  0  0  0  0  0  0  0  0  0
    5.5978  -10.8578   19.5234 H   0  0  0  0  0  0  0  0  0  0  0  0
    7.6678  -12.4708   20.3078 H   0  0  0  0  0  0  0  0  0  0  0  0
    6.4902  -11.5396   20.5600 H   0  0  0  0  0  0  0  0  0  0  0  0
    4.6985  -12.6542   20.3271 H   0  0  0  0  0  0  0  0  0  0  0  0
    4.5877  -12.2302   18.5954 H   0  0  0  0  0  0  0  0  0  0  0  0
    3.2177  -14.2157   18.0068 H   0  0  0  0  0  0  0  0  0  0  0  0
    0.4568  -15.9588   21.1655 H   0  0  0  0  0  0  0  0  0  0  0  0
   -0.3738  -15.8182   19.9135 H   0  0  0  0  0  0  0  0  0  0  0  0
   -2.1352  -17.2690   19.3149 H   0  0  0  0  0  0  0  0  0  0  0  0
   -0.9919  -20.6911   21.3847 H   0  0  0  0  0  0  0  0  0  0  0  0
    0.9415  -19.1147   21.4700 H   0  0  0  0  0  0  0  0  0  0  0  0
  1  2  1  0
  2  3  1  0
  3  4  1  0
  4  5  2  0
  5  6  1  0
  6  7  2  0
  7  8  1  0
  8  9  2  0
  9 10  1  0
 10 11  2  0
 10 12  1  0
 12 13  1  0
 12 14  1  0
 14 15  1  0
 15 16  1  0
 16 17  1  0
 17 18  2  0
 17 19  1  0
 19 20  1  0
 20 21  2  0
 21 22  1  0
 22 23  2  0
 23 24  1  0
  9  4  1  0
 24 20  1  0
  1 25  1  0
  1 26  1  0
  1 27  1  0
  2 28  1  0
  2 29  1  0
  6 30  1  0
  7 31  1  0
  8 32  1  0
 13 33  1  0
 13 34  1  0
 13 35  1  0
 14 36  1  0
 14 37  1  0
 15 38  1  0
 15 39  1  0
 16 40  1  0
 19 41  1  0
 19 42  1  0
 21 43  1  0
 23 44  1  0
 24 45  1  0
M  END
>  <Energy>  (1175) 
2461.3966096470258

>  <compound_id>  (1175) 
6485

>  <target_id>  (1175) 
1

>  <reference_id>  (1175) 
60

>  <inspiration_ids>  (1175) 
[60, 64]

>  <energy_score>  (1175) 
2394.657237412484

>  <distance_score>  (1175) 
10.219618448364093

>  <path>  (1175) 
/opt/xchem-fragalysis-2/maxwin/BulkDock/SCRATCH/511018/C6485-P60/C6485-P60.minimised.mol

>  <scratch_subdir>  (1175) 
/opt/xchem-fragalysis-2/maxwin/BulkDock/SCRATCH/511018/C6485-P60

>  <fragmenstein_runtime>  (1175) 
31.223934412002563

>  <fragmenstein_outcome>  (1175) 
too moved

>  <fragmenstein_mode>  (1175) 
expansion

>  <fragmenstein_error>  (1175) 


$$$$
C6485-P64
     RDKit          3D

 45 46  0  0  0  0  0  0  0  0999 V2000
   11.4700  -11.2487   18.0822 C   0  0  0  0  0  0  0  0  0  0  0  0
   10.2191  -12.0202   18.0977 C   0  0  0  0  0  0  0  0  0  0  0  0
    8.9413  -11.8872   19.3517 O   0  0  0  0  0  0  0  0  0  0  0  0
    7.8071  -10.8012   19.5050 C   0  0  0  0  0  0  0  0  0  0  0  0
    8.5824   -9.7999   18.6439 N   0  0  0  0  0  0  0  0  0  0  0  0
    8.8312  -10.1645   17.4637 C   0  0  0  0  0  0  0  0  0  0  0  0
    7.7412  -10.7792   17.3866 C   0  0  0  0  0  0  0  0  0  0  0  0
    6.3722  -11.0441   18.6687 C   0  0  0  0  0  0  0  0  0  0  0  0
    6.3315  -11.0976   19.9766 C   0  0  0  0  0  0  0  0  0  0  0  0
    5.1030  -12.2425   20.8723 C   0  0  0  0  0  0  0  0  0  0  0  0
    5.0690  -13.2733   20.3084 O   0  0  0  0  0  0  0  0  0  0  0  0
    4.1136  -12.1662   22.5354 N   0  0  0  0  0  0  0  0  0  0  0  0
    2.8548  -11.8231   22.7672 C   0  0  0  0  0  0  0  0  0  0  0  0
    3.1833  -13.5608   23.5355 C   0  0  0  0  0  0  0  0  0  0  0  0
    3.9087  -15.2322   23.7384 C   0  0  0  0  0  0  0  0  0  0  0  0
    4.3038  -16.7061   24.2912 N   0  0  0  0  0  0  0  0  0  0  0  0
    3.2650  -18.1065   24.8370 C   0  0  0  0  0  0  0  0  0  0  0  0
    2.1203  -18.0816   24.7506 O   0  0  0  0  0  0  0  0  0  0  0  0
    3.7288  -19.5349   25.6512 C   0  0  0  0  0  0  0  0  0  0  0  0
    2.3311  -20.4476   25.7759 C   0  0  0  0  0  0  0  0  0  0  0  0
    1.3778  -20.8913   24.8656 C   0  0  0  0  0  0  0  0  0  0  0  0
    0.3124  -21.5214   25.4833 N   0  0  0  0  0  0  0  0  0  0  0  0
    0.5851  -21.4603   26.7618 C   0  0  0  0  0  0  0  0  0  0  0  0
    1.7806  -20.8296   26.9900 N   0  0  0  0  0  0  0  0  0  0  0  0
   12.3622  -11.8780   18.2041 H   0  0  0  0  0  0  0  0  0  0  0  0
   11.4813  -10.4874   18.8527 H   0  0  0  0  0  0  0  0  0  0  0  0
   11.5183  -10.9151   17.0387 H   0  0  0  0  0  0  0  0  0  0  0  0
    9.7935  -12.1184   17.0887 H   0  0  0  0  0  0  0  0  0  0  0  0
   10.5846  -13.0699   18.1921 H   0  0  0  0  0  0  0  0  0  0  0  0
    9.5137   -9.9905   16.6588 H   0  0  0  0  0  0  0  0  0  0  0  0
    8.0657  -11.5144   16.6532 H   0  0  0  0  0  0  0  0  0  0  0  0
    5.6617  -11.8473   18.5086 H   0  0  0  0  0  0  0  0  0  0  0  0
    2.9020  -12.5293   21.9691 H   0  0  0  0  0  0  0  0  0  0  0  0
    2.6367  -11.7808   23.8157 H   0  0  0  0  0  0  0  0  0  0  0  0
    1.7504  -11.7987   22.6954 H   0  0  0  0  0  0  0  0  0  0  0  0
    2.1678  -13.4246   23.8657 H   0  0  0  0  0  0  0  0  0  0  0  0
    3.5561  -13.3279   24.5118 H   0  0  0  0  0  0  0  0  0  0  0  0
    3.6929  -15.4444   22.7842 H   0  0  0  0  0  0  0  0  0  0  0  0
    4.8062  -14.9392   24.2321 H   0  0  0  0  0  0  0  0  0  0  0  0
    5.2655  -16.9590   24.3690 H   0  0  0  0  0  0  0  0  0  0  0  0
    3.8067  -19.4382   26.7349 H   0  0  0  0  0  0  0  0  0  0  0  0
    4.4840  -20.2274   25.3359 H   0  0  0  0  0  0  0  0  0  0  0  0
    1.3784  -20.7491   23.7940 H   0  0  0  0  0  0  0  0  0  0  0  0
   -0.0307  -21.8420   27.5640 H   0  0  0  0  0  0  0  0  0  0  0  0
    2.1715  -20.6398   27.9004 H   0  0  0  0  0  0  0  0  0  0  0  0
  1  2  1  0
  2  3  1  0
  3  4  1  0
  4  5  2  0
  5  6  1  0
  6  7  2  0
  7  8  1  0
  8  9  2  0
  9 10  1  0
 10 11  2  0
 10 12  1  0
 12 13  1  0
 12 14  1  0
 14 15  1  0
 15 16  1  0
 16 17  1  0
 17 18  2  0
 17 19  1  0
 19 20  1  0
 20 21  2  0
 21 22  1  0
 22 23  2  0
 23 24  1  0
  9  4  1  0
 24 20  1  0
  1 25  1  0
  1 26  1  0
  1 27  1  0
  2 28  1  0
  2 29  1  0
  6 30  1  0
  7 31  1  0
  8 32  1  0
 13 33  1  0
 13 34  1  0
 13 35  1  0
 14 36  1  0
 14 37  1  0
 15 38  1  0
 15 39  1  0
 16 40  1  0
 19 41  1  0
 19 42  1  0
 21 43  1  0
 23 44  1  0
 24 45  1  0
M  END
>  <Energy>  (1176) 
1122.7083260429854

>  <compound_id>  (1176) 
6485

>  <target_id>  (1176) 
1

>  <reference_id>  (1176) 
64

>  <inspiration_ids>  (1176) 
[60, 64]

>  <energy_score>  (1176) 
1055.9689538084476

>  <distance_score>  (1176) 
11.658357211310378

>  <path>  (1176) 
/opt/xchem-fragalysis-2/maxwin/BulkDock/SCRATCH/511018/C6485-P64/C6485-P64.minimised.mol

>  <scratch_subdir>  (1176) 
/opt/xchem-fragalysis-2/maxwin/BulkDock/SCRATCH/511018/C6485-P64

>  <fragmenstein_runtime>  (1176) 
27.533710956573486

>  <fragmenstein_outcome>  (1176) 
too moved

>  <fragmenstein_mode>  (1176) 
expansion

>  <fragmenstein_error>  (1176) 


$$$$
C6486-P60
     RDKit          3D

 45 46  0  0  0  0  0  0  0  0999 V2000
   -5.3613  -16.9200   20.6614 C   0  0  0  0  0  0  0  0  0  0  0  0
   -3.9231  -16.1781   21.4459 C   0  0  0  0  0  0  0  0  0  0  0  0
   -3.5161  -15.4787   23.1863 O   0  0  0  0  0  0  0  0  0  0  0  0
   -2.1262  -15.0990   24.2581 C   0  0  0  0  0  0  0  0  0  0  0  0
   -0.8063  -14.1830   24.0384 C   0  0  0  0  0  0  0  0  0  0  0  0
   -0.3609  -13.0188   24.8228 C   0  0  0  0  0  0  0  0  0  0  0  0
   -0.9882  -12.7884   26.0205 C   0  0  0  0  0  0  0  0  0  0  0  0
   -0.5473  -11.7157   26.9242 C   0  0  0  0  0  0  0  0  0  0  0  0
   -0.9349  -10.6072   26.6763 O   0  0  0  0  0  0  0  0  0  0  0  0
    0.2250  -12.2024   28.0104 N   0  0  0  0  0  0  0  0  0  0  0  0
    0.7065  -11.5206   29.2441 C   0  0  0  0  0  0  0  0  0  0  0  0
    1.7283  -12.1478   27.6619 C   0  0  0  0  0  0  0  0  0  0  0  0
    2.2863  -10.8920   26.9196 C   0  0  0  0  0  0  0  0  0  0  0  0
    3.6862  -11.0348   26.5557 N   0  0  0  0  0  0  0  0  0  0  0  0
    4.7861  -10.1008   26.6376 C   0  0  0  0  0  0  0  0  0  0  0  0
    4.8409   -8.9968   27.1001 O   0  0  0  0  0  0  0  0  0  0  0  0
    6.0482  -10.7565   26.0213 C   0  0  0  0  0  0  0  0  0  0  0  0
    7.1608   -9.8089   25.6766 C   0  0  0  0  0  0  0  0  0  0  0  0
    8.3087   -9.9973   24.9366 C   0  0  0  0  0  0  0  0  0  0  0  0
    9.0519   -8.8443   24.8737 N   0  0  0  0  0  0  0  0  0  0  0  0
    8.3986   -7.9742   25.6145 C   0  0  0  0  0  0  0  0  0  0  0  0
    7.2454   -8.5072   26.1121 N   0  0  0  0  0  0  0  0  0  0  0  0
   -1.8574  -13.8092   26.3813 C   0  0  0  0  0  0  0  0  0  0  0  0
   -2.3559  -14.9268   25.5626 N   0  0  0  0  0  0  0  0  0  0  0  0
   -4.9752  -17.4388   19.7659 H   0  0  0  0  0  0  0  0  0  0  0  0
   -5.8699  -17.6582   21.2982 H   0  0  0  0  0  0  0  0  0  0  0  0
   -6.1351  -16.3058   20.2041 H   0  0  0  0  0  0  0  0  0  0  0  0
   -3.5513  -15.5885   20.5936 H   0  0  0  0  0  0  0  0  0  0  0  0
   -3.1222  -16.8027   20.9680 H   0  0  0  0  0  0  0  0  0  0  0  0
   -0.2975  -14.0647   23.0524 H   0  0  0  0  0  0  0  0  0  0  0  0
    0.4164  -12.3675   24.4404 H   0  0  0  0  0  0  0  0  0  0  0  0
    1.2768  -12.1647   29.9283 H   0  0  0  0  0  0  0  0  0  0  0  0
   -0.2271  -11.3366   29.7971 H   0  0  0  0  0  0  0  0  0  0  0  0
    1.0980  -10.5053   29.1211 H   0  0  0  0  0  0  0  0  0  0  0  0
    1.8076  -12.9482   26.9076 H   0  0  0  0  0  0  0  0  0  0  0  0
    2.4255  -12.5360   28.4257 H   0  0  0  0  0  0  0  0  0  0  0  0
    1.7483  -10.7298   25.9805 H   0  0  0  0  0  0  0  0  0  0  0  0
    2.1959   -9.9748   27.5064 H   0  0  0  0  0  0  0  0  0  0  0  0
    3.9798  -11.8457   26.0226 H   0  0  0  0  0  0  0  0  0  0  0  0
    6.4185  -11.4968   26.7402 H   0  0  0  0  0  0  0  0  0  0  0  0
    5.7612  -11.2828   25.1026 H   0  0  0  0  0  0  0  0  0  0  0  0
    8.6360  -10.9007   24.4369 H   0  0  0  0  0  0  0  0  0  0  0  0
    8.6987   -6.9528   25.8169 H   0  0  0  0  0  0  0  0  0  0  0  0
    6.5595   -8.0353   26.6949 H   0  0  0  0  0  0  0  0  0  0  0  0
   -2.0491  -13.9466   27.4370 H   0  0  0  0  0  0  0  0  0  0  0  0
  1  2  1  0
  2  3  1  0
  3  4  1  0
  4  5  2  0
  5  6  1  0
  6  7  2  0
  7  8  1  0
  8  9  2  0
  8 10  1  0
 10 11  1  0
 10 12  1  0
 12 13  1  0
 13 14  1  0
 14 15  1  0
 15 16  2  0
 15 17  1  0
 17 18  1  0
 18 19  2  0
 19 20  1  0
 20 21  2  0
 21 22  1  0
  7 23  1  0
 23 24  2  0
 24  4  1  0
 22 18  1  0
  1 25  1  0
  1 26  1  0
  1 27  1  0
  2 28  1  0
  2 29  1  0
  5 30  1  0
  6 31  1  0
 11 32  1  0
 11 33  1  0
 11 34  1  0
 12 35  1  0
 12 36  1  0
 13 37  1  0
 13 38  1  0
 14 39  1  0
 17 40  1  0
 17 41  1  0
 19 42  1  0
 21 43  1  0
 22 44  1  0
 23 45  1  0
M  END
>  <Energy>  (1177) 
409.33939769660418

>  <compound_id>  (1177) 
6486

>  <target_id>  (1177) 
1

>  <reference_id>  (1177) 
60

>  <inspiration_ids>  (1177) 
[60, 64]

>  <energy_score>  (1177) 
341.62598484386115

>  <distance_score>  (1177) 
15.491826328192483

>  <path>  (1177) 
/opt/xchem-fragalysis-2/maxwin/BulkDock/SCRATCH/511018/C6486-P60/C6486-P60.minimised.mol

>  <scratch_subdir>  (1177) 
/opt/xchem-fragalysis-2/maxwin/BulkDock/SCRATCH/511018/C6486-P60

>  <fragmenstein_runtime>  (1177) 
37.323981523513794

>  <fragmenstein_outcome>  (1177) 
too moved

>  <fragmenstein_mode>  (1177) 
expansion

>  <fragmenstein_error>  (1177) 


$$$$
C6486-P64
     RDKit          3D

 45 46  0  0  0  0  0  0  0  0999 V2000
   -6.0854  -18.7055   35.6223 C   0  0  0  0  0  0  0  0  0  0  0  0
   -6.6555  -19.1522   34.2788 C   0  0  0  0  0  0  0  0  0  0  0  0
   -5.6423  -19.5357   33.3460 O   0  0  0  0  0  0  0  0  0  0  0  0
   -4.8869  -18.4847   32.9434 C   0  0  0  0  0  0  0  0  0  0  0  0
   -5.4150  -17.3162   32.4016 C   0  0  0  0  0  0  0  0  0  0  0  0
   -4.5718  -16.2079   32.2472 C   0  0  0  0  0  0  0  0  0  0  0  0
   -3.2332  -16.3042   32.6431 C   0  0  0  0  0  0  0  0  0  0  0  0
   -2.2727  -15.1441   32.7570 C   0  0  0  0  0  0  0  0  0  0  0  0
   -1.2945  -15.3529   33.4255 O   0  0  0  0  0  0  0  0  0  0  0  0
   -2.7252  -13.9491   32.1287 N   0  0  0  0  0  0  0  0  0  0  0  0
   -2.1977  -12.5608   32.1888 C   0  0  0  0  0  0  0  0  0  0  0  0
   -2.1688  -13.8584   30.6906 C   0  0  0  0  0  0  0  0  0  0  0  0
   -0.6443  -14.0917   30.4181 C   0  0  0  0  0  0  0  0  0  0  0  0
    0.1195  -12.9129   30.0497 N   0  0  0  0  0  0  0  0  0  0  0  0
    0.1406  -12.1433   28.8319 C   0  0  0  0  0  0  0  0  0  0  0  0
   -0.5259  -12.2321   27.8383 O   0  0  0  0  0  0  0  0  0  0  0  0
    1.2425  -11.0488   28.8964 C   0  0  0  0  0  0  0  0  0  0  0  0
    2.1134  -11.0382   27.6726 C   0  0  0  0  0  0  0  0  0  0  0  0
    3.4559  -10.7862   27.4922 C   0  0  0  0  0  0  0  0  0  0  0  0
    3.8006  -10.8929   26.1689 N   0  0  0  0  0  0  0  0  0  0  0  0
    2.6883  -11.2011   25.5427 C   0  0  0  0  0  0  0  0  0  0  0  0
    1.6381  -11.2947   26.4072 N   0  0  0  0  0  0  0  0  0  0  0  0
   -2.8002  -17.5579   33.0796 C   0  0  0  0  0  0  0  0  0  0  0  0
   -3.5836  -18.6514   33.2125 N   0  0  0  0  0  0  0  0  0  0  0  0
   -6.8867  -18.5481   36.3489 H   0  0  0  0  0  0  0  0  0  0  0  0
   -5.3858  -19.4448   36.0231 H   0  0  0  0  0  0  0  0  0  0  0  0
   -5.5332  -17.7653   35.5256 H   0  0  0  0  0  0  0  0  0  0  0  0
   -7.3264  -18.3838   33.8780 H   0  0  0  0  0  0  0  0  0  0  0  0
   -7.2637  -20.0422   34.4281 H   0  0  0  0  0  0  0  0  0  0  0  0
   -6.4644  -17.2498   32.1408 H   0  0  0  0  0  0  0  0  0  0  0  0
   -4.9810  -15.2684   31.8889 H   0  0  0  0  0  0  0  0  0  0  0  0
   -2.4883  -12.2397   33.2008 H   0  0  0  0  0  0  0  0  0  0  0  0
   -1.1058  -12.4837   32.2394 H   0  0  0  0  0  0  0  0  0  0  0  0
   -2.6995  -11.8231   31.5472 H   0  0  0  0  0  0  0  0  0  0  0  0
   -2.6059  -13.0566   30.0730 H   0  0  0  0  0  0  0  0  0  0  0  0
   -2.6392  -14.7471   30.2483 H   0  0  0  0  0  0  0  0  0  0  0  0
   -0.1329  -14.5667   31.2583 H   0  0  0  0  0  0  0  0  0  0  0  0
   -0.5542  -14.7519   29.5501 H   0  0  0  0  0  0  0  0  0  0  0  0
    0.8831  -12.6111   30.6449 H   0  0  0  0  0  0  0  0  0  0  0  0
    1.8775  -11.1718   29.7797 H   0  0  0  0  0  0  0  0  0  0  0  0
    0.7339  -10.0824   28.9934 H   0  0  0  0  0  0  0  0  0  0  0  0
    4.1952  -10.5338   28.2420 H   0  0  0  0  0  0  0  0  0  0  0  0
    2.5824  -11.3679   24.4795 H   0  0  0  0  0  0  0  0  0  0  0  0
    0.6822  -11.5467   26.1775 H   0  0  0  0  0  0  0  0  0  0  0  0
   -1.7693  -17.7165   33.3894 H   0  0  0  0  0  0  0  0  0  0  0  0
  1  2  1  0
  2  3  1  0
  3  4  1  0
  4  5  2  0
  5  6  1  0
  6  7  2  0
  7  8  1  0
  8  9  2  0
  8 10  1  0
 10 11  1  0
 10 12  1  0
 12 13  1  0
 13 14  1  0
 14 15  1  0
 15 16  2  0
 15 17  1  0
 17 18  1  0
 18 19  2  0
 19 20  1  0
 20 21  2  0
 21 22  1  0
  7 23  1  0
 23 24  2  0
 24  4  1  0
 22 18  1  0
  1 25  1  0
  1 26  1  0
  1 27  1  0
  2 28  1  0
  2 29  1  0
  5 30  1  0
  6 31  1  0
 11 32  1  0
 11 33  1  0
 11 34  1  0
 12 35  1  0
 12 36  1  0
 13 37  1  0
 13 38  1  0
 14 39  1  0
 17 40  1  0
 17 41  1  0
 19 42  1  0
 21 43  1  0
 22 44  1  0
 23 45  1  0
M  END
>  <Energy>  (1178) 
108.55345749809197

>  <compound_id>  (1178) 
6486

>  <target_id>  (1178) 
1

>  <reference_id>  (1178) 
64

>  <inspiration_ids>  (1178) 
[60, 64]

>  <energy_score>  (1178) 
40.84004464534314

>  <distance_score>  (1178) 
17.67462152639415

>  <path>  (1178) 
/opt/xchem-fragalysis-2/maxwin/BulkDock/SCRATCH/511018/C6486-P64/C6486-P64.minimised.mol

>  <scratch_subdir>  (1178) 
/opt/xchem-fragalysis-2/maxwin/BulkDock/SCRATCH/511018/C6486-P64

>  <fragmenstein_runtime>  (1178) 
38.33393740653992

>  <fragmenstein_outcome>  (1178) 
too moved

>  <fragmenstein_mode>  (1178) 
expansion

>  <fragmenstein_error>  (1178) 


$$$$
C6494-P60
     RDKit          3D

 36 38  0  0  0  0  0  0  0  0999 V2000
   -1.1439  -10.2586   20.8819 O   0  0  0  0  0  0  0  0  0  0  0  0
    0.0380  -10.3185   21.2651 C   0  0  0  0  0  0  0  0  0  0  0  0
    1.5131   -9.4643   20.6384 N   0  0  0  0  0  0  0  0  0  0  0  0
    1.8182   -8.2668   19.0211 C   0  0  0  0  0  0  0  0  0  0  0  0
    3.6067   -7.8396   18.0113 C   0  0  0  0  0  0  0  0  0  0  0  0
    3.8517   -6.7784   17.2074 C   0  0  0  0  0  0  0  0  0  0  0  0
    5.3326   -6.2573   17.3277 C   0  0  0  0  0  0  0  0  0  0  0  0
    6.7736   -6.3759   18.2857 N   0  0  0  0  0  0  0  0  0  0  0  0
    7.1167   -7.2460   19.3975 C   0  0  0  0  0  0  0  0  0  0  0  0
    9.2052   -7.7128   19.8843 C   0  0  0  0  0  0  0  0  0  0  0  0
   10.5000   -8.4984   21.1041 C   0  0  0  0  0  0  0  0  0  0  0  0
   10.7825   -7.2110   20.9944 C   0  0  0  0  0  0  0  0  0  0  0  0
    5.3364   -7.7957   18.8609 C   0  0  0  0  0  0  0  0  0  0  0  0
    0.2604  -11.7661   22.6874 C   0  0  0  0  0  0  0  0  0  0  0  0
    1.6182  -11.8001   23.0148 F   0  0  0  0  0  0  0  0  0  0  0  0
   -0.2798  -13.4901   23.0762 C   0  0  0  0  0  0  0  0  0  0  0  0
   -1.1829  -14.4031   24.4596 C   0  0  0  0  0  0  0  0  0  0  0  0
   -2.0275  -13.8811   25.6174 C   0  0  0  0  0  0  0  0  0  0  0  0
   -2.8254  -14.6707   26.4434 N   0  0  0  0  0  0  0  0  0  0  0  0
   -3.0863  -15.6790   25.6959 C   0  0  0  0  0  0  0  0  0  0  0  0
   -2.4968  -15.4173   24.4933 N   0  0  0  0  0  0  0  0  0  0  0  0
    2.2697   -9.6610   21.2049 H   0  0  0  0  0  0  0  0  0  0  0  0
    1.2339   -8.6748   18.1966 H   0  0  0  0  0  0  0  0  0  0  0  0
    1.4411   -7.2724   19.2984 H   0  0  0  0  0  0  0  0  0  0  0  0
    3.1607   -6.3323   16.5087 H   0  0  0  0  0  0  0  0  0  0  0  0
    5.5770   -5.7002   16.4190 H   0  0  0  0  0  0  0  0  0  0  0  0
    9.4726   -6.6417   19.4283 H   0  0  0  0  0  0  0  0  0  0  0  0
   10.4999   -8.7944   22.1671 H   0  0  0  0  0  0  0  0  0  0  0  0
   11.4026   -9.0797   20.8543 H   0  0  0  0  0  0  0  0  0  0  0  0
   11.2947   -6.2275   20.5531 H   0  0  0  0  0  0  0  0  0  0  0  0
   11.9257   -7.2934   21.0351 H   0  0  0  0  0  0  0  0  0  0  0  0
    5.1018   -8.8972   18.7791 H   0  0  0  0  0  0  0  0  0  0  0  0
    0.5580  -14.0473   23.5972 H   0  0  0  0  0  0  0  0  0  0  0  0
   -2.2931  -12.8224   25.5962 H   0  0  0  0  0  0  0  0  0  0  0  0
   -3.7646  -16.5002   25.8863 H   0  0  0  0  0  0  0  0  0  0  0  0
   -3.1632  -15.3629   23.7345 H   0  0  0  0  0  0  0  0  0  0  0  0
  1  2  2  0
  2  3  1  0
  3  4  1  0
  4  5  1  0
  5  6  2  0
  6  7  1  0
  7  8  2  0
  8  9  1  0
  9 10  1  0
 10 11  1  0
 11 12  1  0
  9 13  2  0
  2 14  1  0
 14 15  1  0
 14 16  2  3
 16 17  1  0
 17 18  2  0
 18 19  1  0
 19 20  2  0
 20 21  1  0
 13  5  1  0
 21 17  1  0
 12 10  1  0
  3 22  1  0
  4 23  1  0
  4 24  1  0
  6 25  1  0
  7 26  1  0
 10 27  1  0
 11 28  1  0
 11 29  1  0
 12 30  1  0
 12 31  1  0
 13 32  1  0
 16 33  1  0
 18 34  1  0
 20 35  1  0
 21 36  1  0
M  END
>  <Energy>  (1179) 
1416.9268574105622

>  <compound_id>  (1179) 
6494

>  <target_id>  (1179) 
1

>  <reference_id>  (1179) 
60

>  <inspiration_ids>  (1179) 
[60, 64]

>  <energy_score>  (1179) 
1354.3082289499034

>  <distance_score>  (1179) 
11.261853580892115

>  <path>  (1179) 
/opt/xchem-fragalysis-2/maxwin/BulkDock/SCRATCH/511018/C6494-P60/C6494-P60.minimised.mol

>  <scratch_subdir>  (1179) 
/opt/xchem-fragalysis-2/maxwin/BulkDock/SCRATCH/511018/C6494-P60

>  <fragmenstein_runtime>  (1179) 
28.521132707595825

>  <fragmenstein_outcome>  (1179) 
too moved

>  <fragmenstein_mode>  (1179) 
expansion

>  <fragmenstein_error>  (1179) 


$$$$
C6494-P64
     RDKit          3D

 36 38  0  0  0  0  0  0  0  0999 V2000
   -0.1165   -8.6917   21.6277 O   0  0  0  0  0  0  0  0  0  0  0  0
    0.5526   -9.6139   21.1897 C   0  0  0  0  0  0  0  0  0  0  0  0
    1.7003   -9.3265   19.6868 N   0  0  0  0  0  0  0  0  0  0  0  0
    1.9768   -7.8091   18.5359 C   0  0  0  0  0  0  0  0  0  0  0  0
    3.5479   -7.1150   17.5000 C   0  0  0  0  0  0  0  0  0  0  0  0
    3.2166   -5.8504   17.0656 C   0  0  0  0  0  0  0  0  0  0  0  0
    4.1774   -5.1321   16.2460 C   0  0  0  0  0  0  0  0  0  0  0  0
    5.5948   -5.3356   15.7596 N   0  0  0  0  0  0  0  0  0  0  0  0
    6.4902   -6.3447   15.9316 C   0  0  0  0  0  0  0  0  0  0  0  0
    8.3782   -6.5153   14.9299 C   0  0  0  0  0  0  0  0  0  0  0  0
   10.4787   -6.6485   15.1895 C   0  0  0  0  0  0  0  0  0  0  0  0
    9.8589   -5.0277   14.5360 C   0  0  0  0  0  0  0  0  0  0  0  0
    5.1954   -7.2847   16.7811 C   0  0  0  0  0  0  0  0  0  0  0  0
    0.2937  -11.3101   22.4015 C   0  0  0  0  0  0  0  0  0  0  0  0
    1.6276  -11.6881   22.6969 F   0  0  0  0  0  0  0  0  0  0  0  0
   -0.2666  -13.0076   22.7850 C   0  0  0  0  0  0  0  0  0  0  0  0
   -0.8327  -14.1571   24.2435 C   0  0  0  0  0  0  0  0  0  0  0  0
   -1.9222  -13.6391   25.4177 C   0  0  0  0  0  0  0  0  0  0  0  0
   -3.1122  -14.3126   25.7719 N   0  0  0  0  0  0  0  0  0  0  0  0
   -3.0711  -15.3404   25.0308 C   0  0  0  0  0  0  0  0  0  0  0  0
   -1.8468  -15.3285   24.3927 N   0  0  0  0  0  0  0  0  0  0  0  0
    2.0830  -10.1643   19.4252 H   0  0  0  0  0  0  0  0  0  0  0  0
    1.5788   -6.9381   19.0649 H   0  0  0  0  0  0  0  0  0  0  0  0
    1.3233   -8.0857   17.7002 H   0  0  0  0  0  0  0  0  0  0  0  0
    2.2567   -5.3910   17.2742 H   0  0  0  0  0  0  0  0  0  0  0  0
    3.8361   -4.1591   15.8658 H   0  0  0  0  0  0  0  0  0  0  0  0
    8.2404   -7.4970   14.3867 H   0  0  0  0  0  0  0  0  0  0  0  0
   11.2744   -6.7859   15.9974 H   0  0  0  0  0  0  0  0  0  0  0  0
   11.1819   -5.9280   15.9818 H   0  0  0  0  0  0  0  0  0  0  0  0
   10.6446   -4.7828   13.7817 H   0  0  0  0  0  0  0  0  0  0  0  0
    9.9062   -4.0945   15.1445 H   0  0  0  0  0  0  0  0  0  0  0  0
    5.3660   -8.3422   16.7544 H   0  0  0  0  0  0  0  0  0  0  0  0
   -0.1746  -13.9592   22.2304 H   0  0  0  0  0  0  0  0  0  0  0  0
   -2.0910  -12.5768   25.5310 H   0  0  0  0  0  0  0  0  0  0  0  0
   -3.7596  -16.1756   25.0023 H   0  0  0  0  0  0  0  0  0  0  0  0
   -1.4959  -16.2397   24.3890 H   0  0  0  0  0  0  0  0  0  0  0  0
  1  2  2  0
  2  3  1  0
  3  4  1  0
  4  5  1  0
  5  6  2  0
  6  7  1  0
  7  8  2  0
  8  9  1  0
  9 10  1  0
 10 11  1  0
 11 12  1  0
  9 13  2  0
  2 14  1  0
 14 15  1  0
 14 16  2  3
 16 17  1  0
 17 18  2  0
 18 19  1  0
 19 20  2  0
 20 21  1  0
 13  5  1  0
 21 17  1  0
 12 10  1  0
  3 22  1  0
  4 23  1  0
  4 24  1  0
  6 25  1  0
  7 26  1  0
 10 27  1  0
 11 28  1  0
 11 29  1  0
 12 30  1  0
 12 31  1  0
 13 32  1  0
 16 33  1  0
 18 34  1  0
 20 35  1  0
 21 36  1  0
M  END
>  <Energy>  (1180) 
1351.5328507585211

>  <compound_id>  (1180) 
6494

>  <target_id>  (1180) 
1

>  <reference_id>  (1180) 
64

>  <inspiration_ids>  (1180) 
[60, 64]

>  <energy_score>  (1180) 
1288.9142222978512

>  <distance_score>  (1180) 
11.38630877776651

>  <path>  (1180) 
/opt/xchem-fragalysis-2/maxwin/BulkDock/SCRATCH/511018/C6494-P64/C6494-P64.minimised.mol

>  <scratch_subdir>  (1180) 
/opt/xchem-fragalysis-2/maxwin/BulkDock/SCRATCH/511018/C6494-P64

>  <fragmenstein_runtime>  (1180) 
24.800541400909424

>  <fragmenstein_outcome>  (1180) 
too moved

>  <fragmenstein_mode>  (1180) 
expansion

>  <fragmenstein_error>  (1180) 


$$$$
C6496-P60
     RDKit          3D

 42 44  0  0  0  0  0  0  0  0999 V2000
    2.0447  -13.8714   26.8673 C   0  0  0  0  0  0  0  0  0  0  0  0
    1.4033  -13.2896   25.1833 C   0  0  0  0  0  0  0  0  0  0  0  0
    0.2419  -12.5826   26.6003 C   0  0  0  0  0  0  0  0  0  0  0  0
   -0.8923  -13.4099   27.1449 N   0  0  0  0  0  0  0  0  0  0  0  0
   -2.3142  -13.3397   26.9074 C   0  0  0  0  0  0  0  0  0  0  0  0
   -2.9598  -12.5545   26.2801 O   0  0  0  0  0  0  0  0  0  0  0  0
   -3.0789  -14.4977   27.4571 C   0  0  0  0  0  0  0  0  0  0  0  0
   -4.3980  -14.8352   27.1369 C   0  0  0  0  0  0  0  0  0  0  0  0
   -4.7901  -16.0394   27.6711 N   0  0  0  0  0  0  0  0  0  0  0  0
   -3.7502  -16.4491   28.3510 C   0  0  0  0  0  0  0  0  0  0  0  0
   -2.7093  -15.5568   28.2679 N   0  0  0  0  0  0  0  0  0  0  0  0
    2.4504  -11.9964   24.3998 N   0  0  0  0  0  0  0  0  0  0  0  0
    3.4077  -11.9153   22.8620 C   0  0  0  0  0  0  0  0  0  0  0  0
    3.4089  -12.7381   22.0009 O   0  0  0  0  0  0  0  0  0  0  0  0
    4.8641  -10.4482   22.4539 C   0  0  0  0  0  0  0  0  0  0  0  0
    5.5245  -11.3657   20.9706 C   0  0  0  0  0  0  0  0  0  0  0  0
    5.8031  -10.8987   19.5044 C   0  0  0  0  0  0  0  0  0  0  0  0
    5.2538   -9.2091   19.0204 N   0  0  0  0  0  0  0  0  0  0  0  0
    5.5457   -7.8715   20.2182 C   0  0  0  0  0  0  0  0  0  0  0  0
    7.3474   -7.6319   19.5761 C   0  0  0  0  0  0  0  0  0  0  0  0
    8.6031   -9.1667   18.9959 C   0  0  0  0  0  0  0  0  0  0  0  0
    9.2939   -8.0593   19.8556 C   0  0  0  0  0  0  0  0  0  0  0  0
    4.8808   -8.3669   22.1423 C   0  0  0  0  0  0  0  0  0  0  0  0
    2.0719  -13.1718   27.7183 H   0  0  0  0  0  0  0  0  0  0  0  0
    1.4329  -14.6284   27.3442 H   0  0  0  0  0  0  0  0  0  0  0  0
    3.1165  -14.1608   26.8827 H   0  0  0  0  0  0  0  0  0  0  0  0
    0.8175  -13.9674   24.5030 H   0  0  0  0  0  0  0  0  0  0  0  0
    0.7710  -12.1386   27.4493 H   0  0  0  0  0  0  0  0  0  0  0  0
   -0.2747  -11.6884   26.3739 H   0  0  0  0  0  0  0  0  0  0  0  0
   -0.7040  -14.1584   27.7888 H   0  0  0  0  0  0  0  0  0  0  0  0
   -5.0670  -14.2645   26.5018 H   0  0  0  0  0  0  0  0  0  0  0  0
   -3.6848  -17.3654   28.9237 H   0  0  0  0  0  0  0  0  0  0  0  0
   -1.8164  -15.6865   28.7178 H   0  0  0  0  0  0  0  0  0  0  0  0
    2.5506  -11.2154   24.8729 H   0  0  0  0  0  0  0  0  0  0  0  0
    5.2139  -12.4139   20.7248 H   0  0  0  0  0  0  0  0  0  0  0  0
    5.8685  -11.6116   18.7289 H   0  0  0  0  0  0  0  0  0  0  0  0
    7.0753   -6.8561   18.8296 H   0  0  0  0  0  0  0  0  0  0  0  0
    9.2692  -10.0249   19.3098 H   0  0  0  0  0  0  0  0  0  0  0  0
    8.0863  -10.1551   19.2201 H   0  0  0  0  0  0  0  0  0  0  0  0
    9.9496   -8.4701   20.6289 H   0  0  0  0  0  0  0  0  0  0  0  0
    9.5221   -7.0150   19.6945 H   0  0  0  0  0  0  0  0  0  0  0  0
    4.8781   -7.7008   23.0506 H   0  0  0  0  0  0  0  0  0  0  0  0
  1  2  1  0
  2  3  1  0
  3  4  1  0
  4  5  1  0
  5  6  2  0
  5  7  1  0
  7  8  2  0
  8  9  1  0
  9 10  2  0
 10 11  1  0
  2 12  1  0
 12 13  1  0
 13 14  2  0
 13 15  1  0
 15 16  2  0
 16 17  1  0
 17 18  2  0
 18 19  1  0
 19 20  1  0
 20 21  1  0
 21 22  1  0
 19 23  2  0
 11  7  1  0
 23 15  1  0
 22 20  1  0
  1 24  1  0
  1 25  1  0
  1 26  1  0
  2 27  1  0
  3 28  1  0
  3 29  1  0
  4 30  1  0
  8 31  1  0
 10 32  1  0
 11 33  1  0
 12 34  1  0
 16 35  1  0
 17 36  1  0
 20 37  1  0
 21 38  1  0
 21 39  1  0
 22 40  1  0
 22 41  1  0
 23 42  1  0
M  END
>  <Energy>  (1181) 
1197.2927664632477

>  <compound_id>  (1181) 
6496

>  <target_id>  (1181) 
1

>  <reference_id>  (1181) 
60

>  <inspiration_ids>  (1181) 
[60, 64]

>  <energy_score>  (1181) 
1182.1974825612851

>  <distance_score>  (1181) 
11.417507623778441

>  <path>  (1181) 
/opt/xchem-fragalysis-2/maxwin/BulkDock/SCRATCH/511018/C6496-P60/C6496-P60.minimised.mol

>  <scratch_subdir>  (1181) 
/opt/xchem-fragalysis-2/maxwin/BulkDock/SCRATCH/511018/C6496-P60

>  <fragmenstein_runtime>  (1181) 
37.38535928726196

>  <fragmenstein_outcome>  (1181) 
too moved

>  <fragmenstein_mode>  (1181) 
expansion

>  <fragmenstein_error>  (1181) 


$$$$
C6496-P64
     RDKit          3D

 42 44  0  0  0  0  0  0  0  0999 V2000
   -0.4904  -21.7541   25.2391 C   0  0  0  0  0  0  0  0  0  0  0  0
   -0.2857  -22.5764   23.9649 C   0  0  0  0  0  0  0  0  0  0  0  0
   -2.0602  -23.1866   23.5182 C   0  0  0  0  0  0  0  0  0  0  0  0
   -3.4287  -23.9853   24.4569 N   0  0  0  0  0  0  0  0  0  0  0  0
   -4.8377  -24.8435   23.9092 C   0  0  0  0  0  0  0  0  0  0  0  0
   -5.0754  -25.1150   22.7598 O   0  0  0  0  0  0  0  0  0  0  0  0
   -6.2740  -25.4051   25.0074 C   0  0  0  0  0  0  0  0  0  0  0  0
   -6.5456  -27.0530   26.3923 C   0  0  0  0  0  0  0  0  0  0  0  0
   -8.1759  -27.6939   26.4377 N   0  0  0  0  0  0  0  0  0  0  0  0
   -8.1681  -26.9075   27.4433 C   0  0  0  0  0  0  0  0  0  0  0  0
   -6.8582  -27.0845   26.2522 N   0  0  0  0  0  0  0  0  0  0  0  0
    1.0576  -21.6518   23.0972 N   0  0  0  0  0  0  0  0  0  0  0  0
    2.7524  -21.5344   23.4276 C   0  0  0  0  0  0  0  0  0  0  0  0
    3.3258  -22.1549   24.2857 O   0  0  0  0  0  0  0  0  0  0  0  0
    3.9509  -20.3893   22.5844 C   0  0  0  0  0  0  0  0  0  0  0  0
    5.2263  -20.2760   23.1430 C   0  0  0  0  0  0  0  0  0  0  0  0
    6.3251  -19.4202   22.5979 C   0  0  0  0  0  0  0  0  0  0  0  0
    6.4109  -18.4841   21.5248 N   0  0  0  0  0  0  0  0  0  0  0  0
    5.3303  -18.1347   20.8392 C   0  0  0  0  0  0  0  0  0  0  0  0
    5.3770  -16.5786   19.4401 C   0  0  0  0  0  0  0  0  0  0  0  0
    4.9076  -14.6016   18.8067 C   0  0  0  0  0  0  0  0  0  0  0  0
    4.2469  -15.6778   18.3198 C   0  0  0  0  0  0  0  0  0  0  0  0
    4.1629  -19.4331   21.4857 C   0  0  0  0  0  0  0  0  0  0  0  0
   -0.9593  -20.7949   24.9983 H   0  0  0  0  0  0  0  0  0  0  0  0
    0.4659  -21.5472   25.7296 H   0  0  0  0  0  0  0  0  0  0  0  0
   -1.1306  -22.2856   25.9493 H   0  0  0  0  0  0  0  0  0  0  0  0
    0.2417  -23.5036   24.2215 H   0  0  0  0  0  0  0  0  0  0  0  0
   -2.5622  -22.2824   23.1539 H   0  0  0  0  0  0  0  0  0  0  0  0
   -1.9265  -23.8710   22.6734 H   0  0  0  0  0  0  0  0  0  0  0  0
   -3.5117  -23.8151   25.4503 H   0  0  0  0  0  0  0  0  0  0  0  0
   -5.5671  -27.6280   27.1724 H   0  0  0  0  0  0  0  0  0  0  0  0
   -8.7790  -26.0294   27.6433 H   0  0  0  0  0  0  0  0  0  0  0  0
   -7.2646  -28.1206   25.5725 H   0  0  0  0  0  0  0  0  0  0  0  0
    0.8129  -20.9701   22.3898 H   0  0  0  0  0  0  0  0  0  0  0  0
    5.4728  -20.8813   24.0161 H   0  0  0  0  0  0  0  0  0  0  0  0
    7.2889  -19.5073   23.1113 H   0  0  0  0  0  0  0  0  0  0  0  0
    6.2148  -17.0668   18.9590 H   0  0  0  0  0  0  0  0  0  0  0  0
    5.4565  -13.9301   19.5146 H   0  0  0  0  0  0  0  0  0  0  0  0
    4.0689  -13.8499   18.8402 H   0  0  0  0  0  0  0  0  0  0  0  0
    4.4757  -15.5411   17.2617 H   0  0  0  0  0  0  0  0  0  0  0  0
    3.1721  -15.5025   18.3525 H   0  0  0  0  0  0  0  0  0  0  0  0
    3.1684  -19.5040   20.9857 H   0  0  0  0  0  0  0  0  0  0  0  0
  1  2  1  0
  2  3  1  0
  3  4  1  0
  4  5  1  0
  5  6  2  0
  5  7  1  0
  7  8  2  0
  8  9  1  0
  9 10  2  0
 10 11  1  0
  2 12  1  0
 12 13  1  0
 13 14  2  0
 13 15  1  0
 15 16  2  0
 16 17  1  0
 17 18  2  0
 18 19  1  0
 19 20  1  0
 20 21  1  0
 21 22  1  0
 19 23  2  0
 11  7  1  0
 23 15  1  0
 22 20  1  0
  1 24  1  0
  1 25  1  0
  1 26  1  0
  2 27  1  0
  3 28  1  0
  3 29  1  0
  4 30  1  0
  8 31  1  0
 10 32  1  0
 11 33  1  0
 12 34  1  0
 16 35  1  0
 17 36  1  0
 20 37  1  0
 21 38  1  0
 21 39  1  0
 22 40  1  0
 22 41  1  0
 23 42  1  0
M  END
>  <Energy>  (1182) 
1763.1207852080938

>  <compound_id>  (1182) 
6496

>  <target_id>  (1182) 
1

>  <reference_id>  (1182) 
64

>  <inspiration_ids>  (1182) 
[60, 64]

>  <energy_score>  (1182) 
1748.0255013061608

>  <distance_score>  (1182) 
14.219699615987816

>  <path>  (1182) 
/opt/xchem-fragalysis-2/maxwin/BulkDock/SCRATCH/511018/C6496-P64/C6496-P64.minimised.mol

>  <scratch_subdir>  (1182) 
/opt/xchem-fragalysis-2/maxwin/BulkDock/SCRATCH/511018/C6496-P64

>  <fragmenstein_runtime>  (1182) 
55.02049255371094

>  <fragmenstein_outcome>  (1182) 
too moved

>  <fragmenstein_mode>  (1182) 
expansion

>  <fragmenstein_error>  (1182) 


$$$$
C6501-P60
     RDKit          3D

 38 39  0  0  0  0  0  0  0  0999 V2000
    3.7814  -14.0879   24.5946 C   0  0  0  0  0  0  0  0  0  0  0  0
    2.6296  -13.3294   23.3209 C   0  0  0  0  0  0  0  0  0  0  0  0
    0.6177  -14.2252   23.8987 C   0  0  0  0  0  0  0  0  0  0  0  0
   -1.1687  -15.5361   24.4082 C   0  0  0  0  0  0  0  0  0  0  0  0
   -1.9390  -17.5374   25.0133 C   0  0  0  0  0  0  0  0  0  0  0  0
   -2.7419  -17.8654   26.2405 C   0  0  0  0  0  0  0  0  0  0  0  0
   -3.4586  -19.3008   26.2555 C   0  0  0  0  0  0  0  0  0  0  0  0
   -3.4457  -20.5677   25.2768 N   0  0  0  0  0  0  0  0  0  0  0  0
   -2.5746  -20.6202   24.0869 C   0  0  0  0  0  0  0  0  0  0  0  0
   -1.5777  -19.2257   23.8051 C   0  0  0  0  0  0  0  0  0  0  0  0
    3.7044  -11.6373   22.5597 N   0  0  0  0  0  0  0  0  0  0  0  0
    5.2103  -11.4416   21.2435 C   0  0  0  0  0  0  0  0  0  0  0  0
    5.6388  -12.4182   20.5878 O   0  0  0  0  0  0  0  0  0  0  0  0
    6.4278   -9.8052   20.9088 C   0  0  0  0  0  0  0  0  0  0  0  0
    6.1984   -9.0625   22.0392 F   0  0  0  0  0  0  0  0  0  0  0  0
    7.9592   -9.2379   20.2314 C   0  0  0  0  0  0  0  0  0  0  0  0
    9.6273   -8.1901   20.5098 C   0  0  0  0  0  0  0  0  0  0  0  0
   11.1938   -7.6401   21.1152 C   0  0  0  0  0  0  0  0  0  0  0  0
   12.0609   -7.8763   22.2380 N   0  0  0  0  0  0  0  0  0  0  0  0
   11.1812   -8.4644   22.9300 C   0  0  0  0  0  0  0  0  0  0  0  0
   10.6539   -8.9834   21.8040 N   0  0  0  0  0  0  0  0  0  0  0  0
    3.3242  -14.1063   25.5695 H   0  0  0  0  0  0  0  0  0  0  0  0
    4.6355  -13.6711   25.1745 H   0  0  0  0  0  0  0  0  0  0  0  0
    4.2031  -15.0058   24.1676 H   0  0  0  0  0  0  0  0  0  0  0  0
    2.2643  -12.5195   23.9737 H   0  0  0  0  0  0  0  0  0  0  0  0
    0.7896  -13.8867   24.9240 H   0  0  0  0  0  0  0  0  0  0  0  0
   -0.0870  -13.7786   23.1867 H   0  0  0  0  0  0  0  0  0  0  0  0
   -1.7578  -14.8970   25.1341 H   0  0  0  0  0  0  0  0  0  0  0  0
   -1.8568  -15.2250   23.6505 H   0  0  0  0  0  0  0  0  0  0  0  0
   -2.8820  -17.2131   27.0863 H   0  0  0  0  0  0  0  0  0  0  0  0
   -4.0975  -19.5242   27.1174 H   0  0  0  0  0  0  0  0  0  0  0  0
   -2.6087  -21.4623   23.4121 H   0  0  0  0  0  0  0  0  0  0  0  0
   -2.0420  -19.2391   25.0657 H   0  0  0  0  0  0  0  0  0  0  0  0
    3.4490  -10.7185   22.9138 H   0  0  0  0  0  0  0  0  0  0  0  0
    8.1166   -9.7515   19.2691 H   0  0  0  0  0  0  0  0  0  0  0  0
   11.6791   -6.7202   20.6926 H   0  0  0  0  0  0  0  0  0  0  0  0
   11.1511   -8.8093   23.9547 H   0  0  0  0  0  0  0  0  0  0  0  0
   11.3988   -9.5191   21.3543 H   0  0  0  0  0  0  0  0  0  0  0  0
  1  2  1  0
  2  3  1  0
  3  4  1  0
  4  5  1  0
  5  6  2  0
  6  7  1  0
  7  8  2  0
  8  9  1  0
  9 10  2  0
  2 11  1  0
 11 12  1  0
 12 13  2  0
 12 14  1  0
 14 15  1  0
 14 16  2  3
 16 17  1  0
 17 18  2  0
 18 19  1  0
 19 20  2  0
 20 21  1  0
 10  5  1  0
 21 17  1  0
  1 22  1  0
  1 23  1  0
  1 24  1  0
  2 25  1  0
  3 26  1  0
  3 27  1  0
  4 28  1  0
  4 29  1  0
  6 30  1  0
  7 31  1  0
  9 32  1  0
 10 33  1  0
 11 34  1  0
 16 35  1  0
 18 36  1  0
 20 37  1  0
 21 38  1  0
M  END
>  <Energy>  (1183) 
1917.101142114532

>  <compound_id>  (1183) 
6501

>  <target_id>  (1183) 
1

>  <reference_id>  (1183) 
60

>  <inspiration_ids>  (1183) 
[60, 64]

>  <energy_score>  (1183) 
1861.2207131418577

>  <distance_score>  (1183) 
10.696671401800423

>  <path>  (1183) 
/opt/xchem-fragalysis-2/maxwin/BulkDock/SCRATCH/511018/C6501-P60/C6501-P60.minimised.mol

>  <scratch_subdir>  (1183) 
/opt/xchem-fragalysis-2/maxwin/BulkDock/SCRATCH/511018/C6501-P60

>  <fragmenstein_runtime>  (1183) 
14.885248184204102

>  <fragmenstein_outcome>  (1183) 
too moved

>  <fragmenstein_mode>  (1183) 
expansion

>  <fragmenstein_error>  (1183) 


$$$$
C6501-P64
     RDKit          3D

 38 39  0  0  0  0  0  0  0  0999 V2000
   -2.2447  -22.6880   22.7998 C   0  0  0  0  0  0  0  0  0  0  0  0
   -1.9864  -21.6114   23.9028 C   0  0  0  0  0  0  0  0  0  0  0  0
   -3.7212  -21.7782   24.9820 C   0  0  0  0  0  0  0  0  0  0  0  0
   -5.5752  -22.6014   25.3641 C   0  0  0  0  0  0  0  0  0  0  0  0
   -7.2775  -23.0057   26.2908 C   0  0  0  0  0  0  0  0  0  0  0  0
   -8.8702  -24.0336   26.2614 C   0  0  0  0  0  0  0  0  0  0  0  0
   -9.9412  -24.4267   27.1101 C   0  0  0  0  0  0  0  0  0  0  0  0
   -9.9362  -23.8078   28.2180 N   0  0  0  0  0  0  0  0  0  0  0  0
   -8.9930  -22.7969   28.1530 C   0  0  0  0  0  0  0  0  0  0  0  0
   -7.5585  -22.3536   27.4152 C   0  0  0  0  0  0  0  0  0  0  0  0
   -0.1310  -21.0203   23.5546 N   0  0  0  0  0  0  0  0  0  0  0  0
    0.9041  -19.5106   24.2459 C   0  0  0  0  0  0  0  0  0  0  0  0
    0.3595  -18.6922   24.9576 O   0  0  0  0  0  0  0  0  0  0  0  0
    2.8322  -19.0897   24.1556 C   0  0  0  0  0  0  0  0  0  0  0  0
    3.6234  -19.9217   24.8797 F   0  0  0  0  0  0  0  0  0  0  0  0
    3.1834  -17.7449   24.3354 C   0  0  0  0  0  0  0  0  0  0  0  0
    4.0866  -16.3010   23.7545 C   0  0  0  0  0  0  0  0  0  0  0  0
    3.5317  -14.9821   23.4741 C   0  0  0  0  0  0  0  0  0  0  0  0
    3.6367  -14.0563   24.4613 N   0  0  0  0  0  0  0  0  0  0  0  0
    4.4186  -14.6942   25.2617 C   0  0  0  0  0  0  0  0  0  0  0  0
    5.0122  -15.6255   24.4766 N   0  0  0  0  0  0  0  0  0  0  0  0
   -1.3167  -23.0376   22.3394 H   0  0  0  0  0  0  0  0  0  0  0  0
   -2.9183  -22.2940   22.0333 H   0  0  0  0  0  0  0  0  0  0  0  0
   -2.7328  -23.5734   23.2211 H   0  0  0  0  0  0  0  0  0  0  0  0
   -1.5242  -22.2466   24.6863 H   0  0  0  0  0  0  0  0  0  0  0  0
   -4.2033  -21.4339   24.0546 H   0  0  0  0  0  0  0  0  0  0  0  0
   -3.3896  -22.8139   25.1502 H   0  0  0  0  0  0  0  0  0  0  0  0
   -5.7773  -21.5693   25.6876 H   0  0  0  0  0  0  0  0  0  0  0  0
   -5.0937  -23.1423   26.1899 H   0  0  0  0  0  0  0  0  0  0  0  0
   -9.3140  -24.2792   25.2177 H   0  0  0  0  0  0  0  0  0  0  0  0
  -10.7515  -25.0847   26.8422 H   0  0  0  0  0  0  0  0  0  0  0  0
   -9.6514  -21.9371   28.4312 H   0  0  0  0  0  0  0  0  0  0  0  0
   -7.2274  -21.3335   27.4241 H   0  0  0  0  0  0  0  0  0  0  0  0
    0.4692  -21.6201   23.0746 H   0  0  0  0  0  0  0  0  0  0  0  0
    3.2843  -17.8627   23.2880 H   0  0  0  0  0  0  0  0  0  0  0  0
    3.0654  -14.5609   22.6239 H   0  0  0  0  0  0  0  0  0  0  0  0
    4.4643  -14.4454   26.2960 H   0  0  0  0  0  0  0  0  0  0  0  0
    5.9745  -15.9437   24.5025 H   0  0  0  0  0  0  0  0  0  0  0  0
  1  2  1  0
  2  3  1  0
  3  4  1  0
  4  5  1  0
  5  6  2  0
  6  7  1  0
  7  8  2  0
  8  9  1  0
  9 10  2  0
  2 11  1  0
 11 12  1  0
 12 13  2  0
 12 14  1  0
 14 15  1  0
 14 16  2  3
 16 17  1  0
 17 18  2  0
 18 19  1  0
 19 20  2  0
 20 21  1  0
 10  5  1  0
 21 17  1  0
  1 22  1  0
  1 23  1  0
  1 24  1  0
  2 25  1  0
  3 26  1  0
  3 27  1  0
  4 28  1  0
  4 29  1  0
  6 30  1  0
  7 31  1  0
  9 32  1  0
 10 33  1  0
 11 34  1  0
 16 35  1  0
 18 36  1  0
 20 37  1  0
 21 38  1  0
M  END
>  <Energy>  (1184) 
1039.6514990612486

>  <compound_id>  (1184) 
6501

>  <target_id>  (1184) 
1

>  <reference_id>  (1184) 
64

>  <inspiration_ids>  (1184) 
[60, 64]

>  <energy_score>  (1184) 
983.7710700885361

>  <distance_score>  (1184) 
15.195697771978539

>  <path>  (1184) 
/opt/xchem-fragalysis-2/maxwin/BulkDock/SCRATCH/511018/C6501-P64/C6501-P64.minimised.mol

>  <scratch_subdir>  (1184) 
/opt/xchem-fragalysis-2/maxwin/BulkDock/SCRATCH/511018/C6501-P64

>  <fragmenstein_runtime>  (1184) 
22.021799087524414

>  <fragmenstein_outcome>  (1184) 
too moved

>  <fragmenstein_mode>  (1184) 
expansion

>  <fragmenstein_error>  (1184) 


$$$$
C6502-P60
     RDKit          3D

 30 31  0  0  0  0  0  0  0  0999 V2000
  -11.2334  -24.4647   30.8436 C   0  0  0  0  0  0  0  0  0  0  0  0
  -10.4496  -25.1717   29.8345 N   0  0  0  0  0  0  0  0  0  0  0  0
  -11.0012  -25.1337   28.5289 C   0  0  0  0  0  0  0  0  0  0  0  0
  -11.1675  -23.9137   27.8861 C   0  0  0  0  0  0  0  0  0  0  0  0
  -11.6746  -23.8951   26.5992 C   0  0  0  0  0  0  0  0  0  0  0  0
  -11.9874  -25.0001   25.8832 N   0  0  0  0  0  0  0  0  0  0  0  0
  -11.8018  -26.1804   26.4984 C   0  0  0  0  0  0  0  0  0  0  0  0
  -11.4155  -26.2868   27.8200 C   0  0  0  0  0  0  0  0  0  0  0  0
  -11.4614  -27.5932   28.4834 C   0  0  0  0  0  0  0  0  0  0  0  0
  -10.5880  -27.7639   29.2440 O   0  0  0  0  0  0  0  0  0  0  0  0
  -12.7113  -28.4908   28.1488 N   0  0  0  0  0  0  0  0  0  0  0  0
  -13.0871  -29.8704   28.6388 C   0  0  0  0  0  0  0  0  0  0  0  0
  -14.5669  -30.0184   28.7441 C   0  0  0  0  0  0  0  0  0  0  0  0
  -15.4526  -30.8009   28.0284 C   0  0  0  0  0  0  0  0  0  0  0  0
  -16.7352  -30.6205   28.4643 N   0  0  0  0  0  0  0  0  0  0  0  0
  -16.6458  -29.7886   29.4746 C   0  0  0  0  0  0  0  0  0  0  0  0
  -15.3524  -29.4146   29.7005 N   0  0  0  0  0  0  0  0  0  0  0  0
  -11.0576  -24.9168   31.8245 H   0  0  0  0  0  0  0  0  0  0  0  0
  -12.2993  -24.4865   30.6283 H   0  0  0  0  0  0  0  0  0  0  0  0
  -10.9464  -23.4137   30.9155 H   0  0  0  0  0  0  0  0  0  0  0  0
  -10.2908  -26.1512   30.1122 H   0  0  0  0  0  0  0  0  0  0  0  0
  -10.9356  -22.9740   28.3715 H   0  0  0  0  0  0  0  0  0  0  0  0
  -11.8829  -22.9511   26.1024 H   0  0  0  0  0  0  0  0  0  0  0  0
  -12.0007  -27.0503   25.8833 H   0  0  0  0  0  0  0  0  0  0  0  0
  -13.3160  -28.0025   27.4955 H   0  0  0  0  0  0  0  0  0  0  0  0
  -12.7176  -30.5872   27.8974 H   0  0  0  0  0  0  0  0  0  0  0  0
  -12.6157  -30.1996   29.5574 H   0  0  0  0  0  0  0  0  0  0  0  0
  -15.2349  -31.4782   27.2114 H   0  0  0  0  0  0  0  0  0  0  0  0
  -17.4690  -29.4253   30.0765 H   0  0  0  0  0  0  0  0  0  0  0  0
  -15.0504  -28.7627   30.4174 H   0  0  0  0  0  0  0  0  0  0  0  0
  1  2  1  0
  2  3  1  0
  3  4  2  0
  4  5  1  0
  5  6  2  0
  6  7  1  0
  7  8  2  0
  8  9  1  0
  9 10  2  0
  9 11  1  0
 11 12  1  0
 12 13  1  0
 13 14  2  0
 14 15  1  0
 15 16  2  0
 16 17  1  0
  8  3  1  0
 17 13  1  0
  1 18  1  0
  1 19  1  0
  1 20  1  0
  2 21  1  0
  4 22  1  0
  5 23  1  0
  7 24  1  0
 11 25  1  0
 12 26  1  0
 12 27  1  0
 14 28  1  0
 16 29  1  0
 17 30  1  0
M  END
>  <Energy>  (1185) 
36.765169355628757

>  <compound_id>  (1185) 
6502

>  <target_id>  (1185) 
1

>  <reference_id>  (1185) 
60

>  <inspiration_ids>  (1185) 
[60, 64]

>  <energy_score>  (1185) 
7.552922340481928

>  <distance_score>  (1185) 
1.2185203582144946

>  <path>  (1185) 
/opt/xchem-fragalysis-2/maxwin/BulkDock/SCRATCH/511018/C6502-P60/C6502-P60.minimised.mol

>  <scratch_subdir>  (1185) 
/opt/xchem-fragalysis-2/maxwin/BulkDock/SCRATCH/511018/C6502-P60

>  <fragmenstein_runtime>  (1185) 
3.0647528171539307

>  <fragmenstein_outcome>  (1185) 
too moved

>  <fragmenstein_mode>  (1185) 
expansion

>  <fragmenstein_error>  (1185) 


$$$$
C6502-P64
     RDKit          3D

 30 31  0  0  0  0  0  0  0  0999 V2000
  -10.1649  -25.3365   29.6366 C   0  0  0  0  0  0  0  0  0  0  0  0
  -10.5178  -26.2345   28.5613 N   0  0  0  0  0  0  0  0  0  0  0  0
  -11.2061  -25.7814   27.4093 C   0  0  0  0  0  0  0  0  0  0  0  0
  -11.9393  -24.6100   27.4182 C   0  0  0  0  0  0  0  0  0  0  0  0
  -12.7769  -24.3778   26.3496 C   0  0  0  0  0  0  0  0  0  0  0  0
  -13.0434  -25.2482   25.3595 N   0  0  0  0  0  0  0  0  0  0  0  0
  -12.2542  -26.3260   25.2959 C   0  0  0  0  0  0  0  0  0  0  0  0
  -11.3014  -26.6019   26.2229 C   0  0  0  0  0  0  0  0  0  0  0  0
  -10.1904  -27.5211   25.9427 C   0  0  0  0  0  0  0  0  0  0  0  0
   -9.2613  -27.2403   26.6044 O   0  0  0  0  0  0  0  0  0  0  0  0
  -10.4112  -28.7370   24.9516 N   0  0  0  0  0  0  0  0  0  0  0  0
   -9.5390  -29.9212   24.6560 C   0  0  0  0  0  0  0  0  0  0  0  0
   -9.7787  -30.7991   23.4904 C   0  0  0  0  0  0  0  0  0  0  0  0
   -9.2822  -30.8309   22.2035 C   0  0  0  0  0  0  0  0  0  0  0  0
   -9.7977  -31.8980   21.4989 N   0  0  0  0  0  0  0  0  0  0  0  0
  -10.5423  -32.5505   22.3554 C   0  0  0  0  0  0  0  0  0  0  0  0
  -10.5456  -31.9403   23.5733 N   0  0  0  0  0  0  0  0  0  0  0  0
   -9.3625  -24.6894   29.2923 H   0  0  0  0  0  0  0  0  0  0  0  0
   -9.8004  -25.9145   30.4906 H   0  0  0  0  0  0  0  0  0  0  0  0
  -10.9982  -24.7296   29.9955 H   0  0  0  0  0  0  0  0  0  0  0  0
   -9.7096  -26.7986   28.2545 H   0  0  0  0  0  0  0  0  0  0  0  0
  -11.8805  -23.8792   28.2130 H   0  0  0  0  0  0  0  0  0  0  0  0
  -13.2924  -23.4444   26.2271 H   0  0  0  0  0  0  0  0  0  0  0  0
  -12.3689  -26.9237   24.4106 H   0  0  0  0  0  0  0  0  0  0  0  0
  -11.3592  -28.7235   24.6051 H   0  0  0  0  0  0  0  0  0  0  0  0
   -8.5021  -29.6034   24.7013 H   0  0  0  0  0  0  0  0  0  0  0  0
   -9.6807  -30.5860   25.5113 H   0  0  0  0  0  0  0  0  0  0  0  0
   -8.5803  -30.1474   21.7423 H   0  0  0  0  0  0  0  0  0  0  0  0
  -11.0888  -33.4615   22.1560 H   0  0  0  0  0  0  0  0  0  0  0  0
  -11.0296  -32.2709   24.3931 H   0  0  0  0  0  0  0  0  0  0  0  0
  1  2  1  0
  2  3  1  0
  3  4  2  0
  4  5  1  0
  5  6  2  0
  6  7  1  0
  7  8  2  0
  8  9  1  0
  9 10  2  0
  9 11  1  0
 11 12  1  0
 12 13  1  0
 13 14  2  0
 14 15  1  0
 15 16  2  0
 16 17  1  0
  8  3  1  0
 17 13  1  0
  1 18  1  0
  1 19  1  0
  1 20  1  0
  2 21  1  0
  4 22  1  0
  5 23  1  0
  7 24  1  0
 11 25  1  0
 12 26  1  0
 12 27  1  0
 14 28  1  0
 16 29  1  0
 17 30  1  0
M  END
>  <Energy>  (1186) 
52.716571139350272

>  <compound_id>  (1186) 
6502

>  <target_id>  (1186) 
1

>  <reference_id>  (1186) 
64

>  <inspiration_ids>  (1186) 
[60, 64]

>  <energy_score>  (1186) 
23.504324124203663

>  <distance_score>  (1186) 
2.030074698885507

>  <path>  (1186) 
/opt/xchem-fragalysis-2/maxwin/BulkDock/SCRATCH/511018/C6502-P64/C6502-P64.minimised.mol

>  <scratch_subdir>  (1186) 
/opt/xchem-fragalysis-2/maxwin/BulkDock/SCRATCH/511018/C6502-P64

>  <fragmenstein_runtime>  (1186) 
3.266909122467041

>  <fragmenstein_outcome>  (1186) 
too moved

>  <fragmenstein_mode>  (1186) 
expansion

>  <fragmenstein_error>  (1186) 


$$$$
C6505-P60
     RDKit          3D

 31 32  0  0  0  0  0  0  0  0999 V2000
    2.8306   -7.8888   17.3954 C   0  0  0  0  0  0  0  0  0  0  0  0
    2.2536   -6.8400   18.2327 N   0  0  0  0  0  0  0  0  0  0  0  0
    2.3185   -7.0991   19.6229 C   0  0  0  0  0  0  0  0  0  0  0  0
    1.1388   -7.5454   20.2651 C   0  0  0  0  0  0  0  0  0  0  0  0
    1.1427   -7.7344   21.6309 C   0  0  0  0  0  0  0  0  0  0  0  0
    2.2342   -7.5139   22.3973 N   0  0  0  0  0  0  0  0  0  0  0  0
    3.3883   -7.1991   21.7492 C   0  0  0  0  0  0  0  0  0  0  0  0
    3.4980   -6.9491   20.3854 C   0  0  0  0  0  0  0  0  0  0  0  0
    5.0958   -6.4464   19.7236 S   0  0  0  0  0  0  0  0  0  0  0  0
    4.9489   -5.5488   18.5942 O   0  0  0  0  0  0  0  0  0  0  0  0
    5.9117   -7.6397   19.6014 O   0  0  0  0  0  0  0  0  0  0  0  0
    5.8639   -5.5218   20.8970 N   0  0  0  0  0  0  0  0  0  0  0  0
    5.3821   -4.2259   21.3284 C   0  0  0  0  0  0  0  0  0  0  0  0
    5.8310   -3.1089   20.4705 C   0  0  0  0  0  0  0  0  0  0  0  0
    6.3434   -1.8652   20.7661 C   0  0  0  0  0  0  0  0  0  0  0  0
    6.5956   -1.1464   19.6319 N   0  0  0  0  0  0  0  0  0  0  0  0
    6.0231   -1.8334   18.6722 C   0  0  0  0  0  0  0  0  0  0  0  0
    5.5751   -3.0421   19.1216 N   0  0  0  0  0  0  0  0  0  0  0  0
    3.8672   -8.1146   17.6583 H   0  0  0  0  0  0  0  0  0  0  0  0
    2.2354   -8.8054   17.4531 H   0  0  0  0  0  0  0  0  0  0  0  0
    2.8210   -7.5529   16.3537 H   0  0  0  0  0  0  0  0  0  0  0  0
    1.2819   -6.6988   17.9540 H   0  0  0  0  0  0  0  0  0  0  0  0
    0.2302   -7.7384   19.7054 H   0  0  0  0  0  0  0  0  0  0  0  0
    0.2545   -8.0726   22.1522 H   0  0  0  0  0  0  0  0  0  0  0  0
    4.2529   -7.1207   22.4026 H   0  0  0  0  0  0  0  0  0  0  0  0
    6.8731   -5.7068   20.9148 H   0  0  0  0  0  0  0  0  0  0  0  0
    4.2882   -4.2290   21.3893 H   0  0  0  0  0  0  0  0  0  0  0  0
    5.7419   -4.0660   22.3518 H   0  0  0  0  0  0  0  0  0  0  0  0
    6.5200   -1.4309   21.7379 H   0  0  0  0  0  0  0  0  0  0  0  0
    5.9273   -1.5333   17.6364 H   0  0  0  0  0  0  0  0  0  0  0  0
    5.1494   -3.7786   18.5603 H   0  0  0  0  0  0  0  0  0  0  0  0
  1  2  1  0
  2  3  1  0
  3  4  2  0
  4  5  1  0
  5  6  2  0
  6  7  1  0
  7  8  2  0
  8  9  1  0
  9 10  2  0
  9 11  2  0
  9 12  1  0
 12 13  1  0
 13 14  1  0
 14 15  2  0
 15 16  1  0
 16 17  2  0
 17 18  1  0
  8  3  1  0
 18 14  1  0
  1 19  1  0
  1 20  1  0
  1 21  1  0
  2 22  1  0
  4 23  1  0
  5 24  1  0
  7 25  1  0
 12 26  1  0
 13 27  1  0
 13 28  1  0
 15 29  1  0
 17 30  1  0
 18 31  1  0
M  END
>  <Energy>  (1187) 
-62.004886177007599

>  <compound_id>  (1187) 
6505

>  <target_id>  (1187) 
1

>  <reference_id>  (1187) 
60

>  <inspiration_ids>  (1187) 
[60, 64]

>  <energy_score>  (1187) 
-36.03643847395079

>  <distance_score>  (1187) 
16.1256933999413

>  <path>  (1187) 
/opt/xchem-fragalysis-2/maxwin/BulkDock/SCRATCH/511018/C6505-P60/C6505-P60.minimised.mol

>  <scratch_subdir>  (1187) 
/opt/xchem-fragalysis-2/maxwin/BulkDock/SCRATCH/511018/C6505-P60

>  <fragmenstein_runtime>  (1187) 
11.899999856948853

>  <fragmenstein_outcome>  (1187) 
too moved

>  <fragmenstein_mode>  (1187) 
expansion

>  <fragmenstein_error>  (1187) 


$$$$
C6505-P64
     RDKit          3D

 31 32  0  0  0  0  0  0  0  0999 V2000
   -1.1234  -13.4513   25.5812 C   0  0  0  0  0  0  0  0  0  0  0  0
    0.8399  -13.1948   25.9420 N   0  0  0  0  0  0  0  0  0  0  0  0
    1.9573  -13.0833   24.4206 C   0  0  0  0  0  0  0  0  0  0  0  0
    0.8104  -14.1727   23.8327 C   0  0  0  0  0  0  0  0  0  0  0  0
   -0.1780  -14.0387   22.9455 C   0  0  0  0  0  0  0  0  0  0  0  0
   -0.0889  -12.7506   22.6565 N   0  0  0  0  0  0  0  0  0  0  0  0
    1.0759  -11.6754   22.7992 C   0  0  0  0  0  0  0  0  0  0  0  0
    2.3150  -11.9519   23.5623 C   0  0  0  0  0  0  0  0  0  0  0  0
    4.1495  -10.9484   22.6667 S   0  0  0  0  0  0  0  0  0  0  0  0
    4.3613  -11.8568   21.5505 O   0  0  0  0  0  0  0  0  0  0  0  0
    3.9294   -9.4921   22.6479 O   0  0  0  0  0  0  0  0  0  0  0  0
    6.0554  -10.6620   23.1358 N   0  0  0  0  0  0  0  0  0  0  0  0
    6.9183  -10.7589   21.8816 C   0  0  0  0  0  0  0  0  0  0  0  0
    8.3670  -10.8267   22.2565 C   0  0  0  0  0  0  0  0  0  0  0  0
    9.0574  -10.7636   23.4515 C   0  0  0  0  0  0  0  0  0  0  0  0
   10.4064  -10.6328   23.2304 N   0  0  0  0  0  0  0  0  0  0  0  0
   10.5627  -10.7598   21.9333 C   0  0  0  0  0  0  0  0  0  0  0  0
    9.3613  -10.9333   21.3039 N   0  0  0  0  0  0  0  0  0  0  0  0
   -1.8252  -12.6029   25.5423 H   0  0  0  0  0  0  0  0  0  0  0  0
   -1.2619  -14.1745   24.8014 H   0  0  0  0  0  0  0  0  0  0  0  0
   -1.6723  -14.2048   26.2392 H   0  0  0  0  0  0  0  0  0  0  0  0
    0.9655  -12.1959   26.1230 H   0  0  0  0  0  0  0  0  0  0  0  0
    0.3953  -14.6759   24.5851 H   0  0  0  0  0  0  0  0  0  0  0  0
   -0.9126  -14.7258   22.5827 H   0  0  0  0  0  0  0  0  0  0  0  0
    0.7987  -10.9264   22.0260 H   0  0  0  0  0  0  0  0  0  0  0  0
    6.0213   -9.6767   23.4239 H   0  0  0  0  0  0  0  0  0  0  0  0
    6.6817   -9.9055   21.2412 H   0  0  0  0  0  0  0  0  0  0  0  0
    6.7267  -11.6421   21.2683 H   0  0  0  0  0  0  0  0  0  0  0  0
    8.6458  -10.7235   24.4529 H   0  0  0  0  0  0  0  0  0  0  0  0
   11.5044  -10.7431   21.3998 H   0  0  0  0  0  0  0  0  0  0  0  0
    9.2324  -11.0396   20.3059 H   0  0  0  0  0  0  0  0  0  0  0  0
  1  2  1  0
  2  3  1  0
  3  4  2  0
  4  5  1  0
  5  6  2  0
  6  7  1  0
  7  8  2  0
  8  9  1  0
  9 10  2  0
  9 11  2  0
  9 12  1  0
 12 13  1  0
 13 14  1  0
 14 15  2  0
 15 16  1  0
 16 17  2  0
 17 18  1  0
  8  3  1  0
 18 14  1  0
  1 19  1  0
  1 20  1  0
  1 21  1  0
  2 22  1  0
  4 23  1  0
  5 24  1  0
  7 25  1  0
 12 26  1  0
 13 27  1  0
 13 28  1  0
 15 29  1  0
 17 30  1  0
 18 31  1  0
M  END
>  <Energy>  (1188) 
381.49965957430715

>  <compound_id>  (1188) 
6505

>  <target_id>  (1188) 
1

>  <reference_id>  (1188) 
64

>  <inspiration_ids>  (1188) 
[60, 64]

>  <energy_score>  (1188) 
407.4681072773661

>  <distance_score>  (1188) 
13.73086938504539

>  <path>  (1188) 
/opt/xchem-fragalysis-2/maxwin/BulkDock/SCRATCH/511018/C6505-P64/C6505-P64.minimised.mol

>  <scratch_subdir>  (1188) 
/opt/xchem-fragalysis-2/maxwin/BulkDock/SCRATCH/511018/C6505-P64

>  <fragmenstein_runtime>  (1188) 
9.680152893066406

>  <fragmenstein_outcome>  (1188) 
too moved

>  <fragmenstein_mode>  (1188) 
expansion

>  <fragmenstein_error>  (1188) 


$$$$
C6508-P60
     RDKit          3D

 23 24  0  0  0  0  0  0  0  0999 V2000
    0.8483  -12.7349   23.8508 F   0  0  0  0  0  0  0  0  0  0  0  0
    0.5171  -12.8016   22.5526 C   0  0  0  0  0  0  0  0  0  0  0  0
   -0.6992  -13.4336   22.2758 C   0  0  0  0  0  0  0  0  0  0  0  0
   -1.1442  -13.6932   21.0358 N   0  0  0  0  0  0  0  0  0  0  0  0
   -0.3375  -13.2850   20.0394 C   0  0  0  0  0  0  0  0  0  0  0  0
    0.8761  -12.5905   20.2165 C   0  0  0  0  0  0  0  0  0  0  0  0
    1.3672  -12.3260   21.5036 C   0  0  0  0  0  0  0  0  0  0  0  0
    2.5273  -11.5056   21.7260 N   0  0  0  0  0  0  0  0  0  0  0  0
    3.5897  -11.3633   20.6978 C   0  0  0  0  0  0  0  0  0  0  0  0
    4.6655  -10.3571   20.9667 C   0  0  0  0  0  0  0  0  0  0  0  0
    6.0431  -10.4337   20.8958 C   0  0  0  0  0  0  0  0  0  0  0  0
    6.6153   -9.2065   21.0959 N   0  0  0  0  0  0  0  0  0  0  0  0
    5.6088   -8.3788   21.2762 C   0  0  0  0  0  0  0  0  0  0  0  0
    4.4123   -9.0332   21.2350 N   0  0  0  0  0  0  0  0  0  0  0  0
   -1.3393  -13.7711   23.0849 H   0  0  0  0  0  0  0  0  0  0  0  0
   -0.7024  -13.5021   19.0374 H   0  0  0  0  0  0  0  0  0  0  0  0
    1.3971  -12.2653   19.3236 H   0  0  0  0  0  0  0  0  0  0  0  0
    2.9087  -11.6760   22.6570 H   0  0  0  0  0  0  0  0  0  0  0  0
    3.1350  -11.0712   19.7440 H   0  0  0  0  0  0  0  0  0  0  0  0
    4.0521  -12.3469   20.5485 H   0  0  0  0  0  0  0  0  0  0  0  0
    6.6478  -11.3067   20.6824 H   0  0  0  0  0  0  0  0  0  0  0  0
    5.6842   -7.3108   21.4410 H   0  0  0  0  0  0  0  0  0  0  0  0
    3.4972   -8.6151   21.3439 H   0  0  0  0  0  0  0  0  0  0  0  0
  1  2  1  0
  2  3  2  0
  3  4  1  0
  4  5  2  0
  5  6  1  0
  6  7  2  0
  7  8  1  0
  8  9  1  0
  9 10  1  0
 10 11  2  0
 11 12  1  0
 12 13  2  0
 13 14  1  0
  7  2  1  0
 14 10  1  0
  3 15  1  0
  5 16  1  0
  6 17  1  0
  8 18  1  0
  9 19  1  0
  9 20  1  0
 11 21  1  0
 13 22  1  0
 14 23  1  0
M  END
>  <Energy>  (1189) 
29.128661602479518

>  <compound_id>  (1189) 
6508

>  <target_id>  (1189) 
1

>  <reference_id>  (1189) 
60

>  <inspiration_ids>  (1189) 
[60, 64]

>  <energy_score>  (1189) 
-12.703044263020175

>  <distance_score>  (1189) 
14.098730636774665

>  <path>  (1189) 
/opt/xchem-fragalysis-2/maxwin/BulkDock/SCRATCH/511018/C6508-P60/C6508-P60.minimised.mol

>  <scratch_subdir>  (1189) 
/opt/xchem-fragalysis-2/maxwin/BulkDock/SCRATCH/511018/C6508-P60

>  <fragmenstein_runtime>  (1189) 
8.009621620178223

>  <fragmenstein_outcome>  (1189) 
too moved

>  <fragmenstein_mode>  (1189) 
expansion

>  <fragmenstein_error>  (1189) 


$$$$
C6508-P64
     RDKit          3D

 23 24  0  0  0  0  0  0  0  0999 V2000
    0.6952  -18.7521   21.4532 F   0  0  0  0  0  0  0  0  0  0  0  0
   -0.6664  -18.4735   21.6611 C   0  0  0  0  0  0  0  0  0  0  0  0
   -1.7605  -19.9715   22.5105 C   0  0  0  0  0  0  0  0  0  0  0  0
   -1.9304  -20.5524   23.5118 N   0  0  0  0  0  0  0  0  0  0  0  0
   -1.4843  -19.3958   23.2150 C   0  0  0  0  0  0  0  0  0  0  0  0
   -1.4504  -18.2686   21.5343 C   0  0  0  0  0  0  0  0  0  0  0  0
   -0.7770  -17.3973   20.8539 C   0  0  0  0  0  0  0  0  0  0  0  0
    0.2962  -16.6065   20.5560 N   0  0  0  0  0  0  0  0  0  0  0  0
    0.3933  -15.3635   19.7312 C   0  0  0  0  0  0  0  0  0  0  0  0
    1.6673  -14.4945   19.8664 C   0  0  0  0  0  0  0  0  0  0  0  0
    1.9191  -13.2902   20.5159 C   0  0  0  0  0  0  0  0  0  0  0  0
    3.2251  -12.8781   20.3630 N   0  0  0  0  0  0  0  0  0  0  0  0
    3.7746  -13.7857   19.5929 C   0  0  0  0  0  0  0  0  0  0  0  0
    2.8778  -14.7692   19.2557 N   0  0  0  0  0  0  0  0  0  0  0  0
   -2.6409  -20.6855   21.9995 H   0  0  0  0  0  0  0  0  0  0  0  0
   -1.8028  -19.0511   24.6187 H   0  0  0  0  0  0  0  0  0  0  0  0
   -2.2596  -18.3376   20.5808 H   0  0  0  0  0  0  0  0  0  0  0  0
    1.0830  -17.2300   20.3673 H   0  0  0  0  0  0  0  0  0  0  0  0
    0.2865  -15.6468   18.6772 H   0  0  0  0  0  0  0  0  0  0  0  0
   -0.4643  -14.7267   19.9812 H   0  0  0  0  0  0  0  0  0  0  0  0
    1.2181  -12.7055   21.0995 H   0  0  0  0  0  0  0  0  0  0  0  0
    4.7982  -13.7915   19.2420 H   0  0  0  0  0  0  0  0  0  0  0  0
    3.0742  -15.5631   18.6611 H   0  0  0  0  0  0  0  0  0  0  0  0
  1  2  1  0
  2  3  2  0
  3  4  1  0
  4  5  2  0
  5  6  1  0
  6  7  2  0
  7  8  1  0
  8  9  1  0
  9 10  1  0
 10 11  2  0
 11 12  1  0
 12 13  2  0
 13 14  1  0
  7  2  1  0
 14 10  1  0
  3 15  1  0
  5 16  1  0
  6 17  1  0
  8 18  1  0
  9 19  1  0
  9 20  1  0
 11 21  1  0
 13 22  1  0
 14 23  1  0
M  END
>  <Energy>  (1190) 
896.33406209787893

>  <compound_id>  (1190) 
6508

>  <target_id>  (1190) 
1

>  <reference_id>  (1190) 
64

>  <inspiration_ids>  (1190) 
[60, 64]

>  <energy_score>  (1190) 
854.5023562323636

>  <distance_score>  (1190) 
15.226128238376313

>  <path>  (1190) 
/opt/xchem-fragalysis-2/maxwin/BulkDock/SCRATCH/511018/C6508-P64/C6508-P64.minimised.mol

>  <scratch_subdir>  (1190) 
/opt/xchem-fragalysis-2/maxwin/BulkDock/SCRATCH/511018/C6508-P64

>  <fragmenstein_runtime>  (1190) 
5.352949380874634

>  <fragmenstein_outcome>  (1190) 
too moved

>  <fragmenstein_mode>  (1190) 
expansion

>  <fragmenstein_error>  (1190) 


$$$$
C6509-P60
     RDKit          3D

 33 34  0  0  0  0  0  0  0  0999 V2000
   -5.7499   -8.5719   20.3593 C   0  0  0  0  0  0  0  0  0  0  0  0
   -5.2293   -9.9240   20.5973 N   0  0  0  0  0  0  0  0  0  0  0  0
   -5.5598  -10.3887   21.9021 C   0  0  0  0  0  0  0  0  0  0  0  0
   -6.6291  -11.3160   22.0492 C   0  0  0  0  0  0  0  0  0  0  0  0
   -6.9823  -11.7768   23.3101 C   0  0  0  0  0  0  0  0  0  0  0  0
   -6.3543  -11.3690   24.4248 N   0  0  0  0  0  0  0  0  0  0  0  0
   -5.3456  -10.4522   24.2652 C   0  0  0  0  0  0  0  0  0  0  0  0
   -4.8804   -9.9251   23.0442 C   0  0  0  0  0  0  0  0  0  0  0  0
   -3.6956   -8.9408   23.0862 C   0  0  0  0  0  0  0  0  0  0  0  0
   -3.6926   -8.2756   24.0844 O   0  0  0  0  0  0  0  0  0  0  0  0
   -2.7419   -9.0017   21.9818 N   0  0  0  0  0  0  0  0  0  0  0  0
   -1.5106   -8.1827   21.6958 C   0  0  0  0  0  0  0  0  0  0  0  0
   -0.1799   -8.9262   21.3126 C   0  0  0  0  0  0  0  0  0  0  0  0
    1.0545   -8.0949   21.0013 C   0  0  0  0  0  0  0  0  0  0  0  0
    1.2981   -6.7575   20.7383 C   0  0  0  0  0  0  0  0  0  0  0  0
    2.6276   -6.5240   20.4676 N   0  0  0  0  0  0  0  0  0  0  0  0
    3.2059   -7.6959   20.5666 C   0  0  0  0  0  0  0  0  0  0  0  0
    2.3077   -8.6731   20.8839 N   0  0  0  0  0  0  0  0  0  0  0  0
   -6.8421   -8.5499   20.4424 H   0  0  0  0  0  0  0  0  0  0  0  0
   -5.3211   -7.8377   21.0479 H   0  0  0  0  0  0  0  0  0  0  0  0
   -5.4833   -8.2664   19.3426 H   0  0  0  0  0  0  0  0  0  0  0  0
   -5.6188  -10.5545   19.8933 H   0  0  0  0  0  0  0  0  0  0  0  0
   -7.1796  -11.6717   21.1841 H   0  0  0  0  0  0  0  0  0  0  0  0
   -7.7899  -12.4883   23.4534 H   0  0  0  0  0  0  0  0  0  0  0  0
   -4.8853  -10.1450   25.2042 H   0  0  0  0  0  0  0  0  0  0  0  0
   -3.1092   -9.6225   21.2574 H   0  0  0  0  0  0  0  0  0  0  0  0
   -1.7934   -7.5096   20.8786 H   0  0  0  0  0  0  0  0  0  0  0  0
   -1.3357   -7.5617   22.5816 H   0  0  0  0  0  0  0  0  0  0  0  0
   -0.3905   -9.5544   20.4373 H   0  0  0  0  0  0  0  0  0  0  0  0
    0.0684   -9.6148   22.1277 H   0  0  0  0  0  0  0  0  0  0  0  0
    0.5818   -5.9454   20.7198 H   0  0  0  0  0  0  0  0  0  0  0  0
    4.2584   -7.8978   20.4192 H   0  0  0  0  0  0  0  0  0  0  0  0
    2.5247   -9.6534   21.0054 H   0  0  0  0  0  0  0  0  0  0  0  0
  1  2  1  0
  2  3  1  0
  3  4  2  0
  4  5  1  0
  5  6  2  0
  6  7  1  0
  7  8  2  0
  8  9  1  0
  9 10  2  0
  9 11  1  0
 11 12  1  0
 12 13  1  0
 13 14  1  0
 14 15  2  0
 15 16  1  0
 16 17  2  0
 17 18  1  0
  8  3  1  0
 18 14  1  0
  1 19  1  0
  1 20  1  0
  1 21  1  0
  2 22  1  0
  4 23  1  0
  5 24  1  0
  7 25  1  0
 11 26  1  0
 12 27  1  0
 12 28  1  0
 13 29  1  0
 13 30  1  0
 15 31  1  0
 17 32  1  0
 18 33  1  0
M  END
>  <Energy>  (1191) 
51.531660114728666

>  <compound_id>  (1191) 
6509

>  <target_id>  (1191) 
1

>  <reference_id>  (1191) 
60

>  <inspiration_ids>  (1191) 
[60, 64]

>  <energy_score>  (1191) 
-12.158415768017164

>  <distance_score>  (1191) 
15.476839206941023

>  <path>  (1191) 
/opt/xchem-fragalysis-2/maxwin/BulkDock/SCRATCH/511018/C6509-P60/C6509-P60.minimised.mol

>  <scratch_subdir>  (1191) 
/opt/xchem-fragalysis-2/maxwin/BulkDock/SCRATCH/511018/C6509-P60

>  <fragmenstein_runtime>  (1191) 
15.755316972732544

>  <fragmenstein_outcome>  (1191) 
too moved

>  <fragmenstein_mode>  (1191) 
expansion

>  <fragmenstein_error>  (1191) 


$$$$
C6509-P64
     RDKit          3D

 33 34  0  0  0  0  0  0  0  0999 V2000
    7.0027  -13.2587   28.0587 C   0  0  0  0  0  0  0  0  0  0  0  0
    6.1883  -13.4672   26.8564 N   0  0  0  0  0  0  0  0  0  0  0  0
    5.8962  -14.8511   26.6715 C   0  0  0  0  0  0  0  0  0  0  0  0
    4.7764  -15.4131   27.3170 C   0  0  0  0  0  0  0  0  0  0  0  0
    4.5309  -16.7690   27.1945 C   0  0  0  0  0  0  0  0  0  0  0  0
    5.3395  -17.6085   26.5305 N   0  0  0  0  0  0  0  0  0  0  0  0
    6.4585  -17.0446   25.9769 C   0  0  0  0  0  0  0  0  0  0  0  0
    6.7822  -15.6812   25.9679 C   0  0  0  0  0  0  0  0  0  0  0  0
    8.0099  -15.2334   25.1709 C   0  0  0  0  0  0  0  0  0  0  0  0
    8.7177  -16.1386   24.8319 O   0  0  0  0  0  0  0  0  0  0  0  0
    8.0843  -13.8222   24.8807 N   0  0  0  0  0  0  0  0  0  0  0  0
    8.9876  -13.0672   24.0052 C   0  0  0  0  0  0  0  0  0  0  0  0
    8.9183  -11.5231   24.0921 C   0  0  0  0  0  0  0  0  0  0  0  0
    9.6935  -10.7728   23.0409 C   0  0  0  0  0  0  0  0  0  0  0  0
   10.4909   -9.6441   23.1101 C   0  0  0  0  0  0  0  0  0  0  0  0
   10.9009   -9.2458   21.8613 N   0  0  0  0  0  0  0  0  0  0  0  0
   10.4338  -10.1632   21.0464 C   0  0  0  0  0  0  0  0  0  0  0  0
    9.6803  -11.0903   21.7035 N   0  0  0  0  0  0  0  0  0  0  0  0
    7.9570  -13.7922   27.9958 H   0  0  0  0  0  0  0  0  0  0  0  0
    7.2236  -12.1910   28.1530 H   0  0  0  0  0  0  0  0  0  0  0  0
    6.4694  -13.5734   28.9622 H   0  0  0  0  0  0  0  0  0  0  0  0
    5.3046  -12.9598   26.9482 H   0  0  0  0  0  0  0  0  0  0  0  0
    4.0960  -14.8003   27.8966 H   0  0  0  0  0  0  0  0  0  0  0  0
    3.6442  -17.1992   27.6272 H   0  0  0  0  0  0  0  0  0  0  0  0
    7.1079  -17.7643   25.4763 H   0  0  0  0  0  0  0  0  0  0  0  0
    7.2605  -13.3583   25.2707 H   0  0  0  0  0  0  0  0  0  0  0  0
    8.7491  -13.4011   22.9889 H   0  0  0  0  0  0  0  0  0  0  0  0
   10.0061  -13.4159   24.2116 H   0  0  0  0  0  0  0  0  0  0  0  0
    7.8675  -11.2138   24.0202 H   0  0  0  0  0  0  0  0  0  0  0  0
    9.2600  -11.2131   25.0875 H   0  0  0  0  0  0  0  0  0  0  0  0
   10.7630   -9.0819   23.9956 H   0  0  0  0  0  0  0  0  0  0  0  0
   10.5965  -10.2160   19.9801 H   0  0  0  0  0  0  0  0  0  0  0  0
    9.2060  -11.8724   21.2709 H   0  0  0  0  0  0  0  0  0  0  0  0
  1  2  1  0
  2  3  1  0
  3  4  2  0
  4  5  1  0
  5  6  2  0
  6  7  1  0
  7  8  2  0
  8  9  1  0
  9 10  2  0
  9 11  1  0
 11 12  1  0
 12 13  1  0
 13 14  1  0
 14 15  2  0
 15 16  1  0
 16 17  2  0
 17 18  1  0
  8  3  1  0
 18 14  1  0
  1 19  1  0
  1 20  1  0
  1 21  1  0
  2 22  1  0
  4 23  1  0
  5 24  1  0
  7 25  1  0
 11 26  1  0
 12 27  1  0
 12 28  1  0
 13 29  1  0
 13 30  1  0
 15 31  1  0
 17 32  1  0
 18 33  1  0
M  END
>  <Energy>  (1192) 
46.083143211888526

>  <compound_id>  (1192) 
6509

>  <target_id>  (1192) 
1

>  <reference_id>  (1192) 
64

>  <inspiration_ids>  (1192) 
[60, 64]

>  <energy_score>  (1192) 
-17.606932670853666

>  <distance_score>  (1192) 
13.980370524818976

>  <path>  (1192) 
/opt/xchem-fragalysis-2/maxwin/BulkDock/SCRATCH/511018/C6509-P64/C6509-P64.minimised.mol

>  <scratch_subdir>  (1192) 
/opt/xchem-fragalysis-2/maxwin/BulkDock/SCRATCH/511018/C6509-P64

>  <fragmenstein_runtime>  (1192) 
28.578495025634766

>  <fragmenstein_outcome>  (1192) 
too moved

>  <fragmenstein_mode>  (1192) 
expansion

>  <fragmenstein_error>  (1192) 


$$$$
C6516-P60
     RDKit          3D

 29 30  0  0  0  0  0  0  0  0999 V2000
    1.9899   -8.9443   22.5932 C   0  0  0  0  0  0  0  0  0  0  0  0
    1.9065   -9.6210   21.2331 C   0  0  0  0  0  0  0  0  0  0  0  0
    2.0723  -11.1230   21.3379 C   0  0  0  0  0  0  0  0  0  0  0  0
    0.8884  -11.9047   21.4039 C   0  0  0  0  0  0  0  0  0  0  0  0
    0.9794  -13.2744   21.5157 C   0  0  0  0  0  0  0  0  0  0  0  0
    2.1641  -13.9074   21.5734 N   0  0  0  0  0  0  0  0  0  0  0  0
    3.2943  -13.1368   21.4918 C   0  0  0  0  0  0  0  0  0  0  0  0
    3.3476  -11.7382   21.3670 C   0  0  0  0  0  0  0  0  0  0  0  0
    4.5807  -11.0084   21.3289 N   0  0  0  0  0  0  0  0  0  0  0  0
    5.4931  -11.2545   20.1929 C   0  0  0  0  0  0  0  0  0  0  0  0
    6.9198  -10.8729   20.4379 C   0  0  0  0  0  0  0  0  0  0  0  0
    7.8202  -10.1239   19.7087 C   0  0  0  0  0  0  0  0  0  0  0  0
    9.0656  -10.1442   20.2882 N   0  0  0  0  0  0  0  0  0  0  0  0
    8.9524  -10.9436   21.3239 C   0  0  0  0  0  0  0  0  0  0  0  0
    7.6620  -11.3661   21.4852 N   0  0  0  0  0  0  0  0  0  0  0  0
    1.8582   -7.8630   22.4856 H   0  0  0  0  0  0  0  0  0  0  0  0
    1.2102   -9.3150   23.2674 H   0  0  0  0  0  0  0  0  0  0  0  0
    2.9579   -9.1209   23.0731 H   0  0  0  0  0  0  0  0  0  0  0  0
    0.9372   -9.3875   20.7745 H   0  0  0  0  0  0  0  0  0  0  0  0
    2.6542   -9.2031   20.5494 H   0  0  0  0  0  0  0  0  0  0  0  0
   -0.0885  -11.4359   21.3559 H   0  0  0  0  0  0  0  0  0  0  0  0
    0.0964  -13.9039   21.5536 H   0  0  0  0  0  0  0  0  0  0  0  0
    4.2172  -13.7083   21.5563 H   0  0  0  0  0  0  0  0  0  0  0  0
    4.4098  -10.0093   21.4054 H   0  0  0  0  0  0  0  0  0  0  0  0
    5.1142  -10.7052   19.3220 H   0  0  0  0  0  0  0  0  0  0  0  0
    5.4826  -12.3180   19.9226 H   0  0  0  0  0  0  0  0  0  0  0  0
    7.6347   -9.5927   18.7852 H   0  0  0  0  0  0  0  0  0  0  0  0
    9.7499  -11.2370   21.9940 H   0  0  0  0  0  0  0  0  0  0  0  0
    7.3187  -11.9823   22.2111 H   0  0  0  0  0  0  0  0  0  0  0  0
  1  2  1  0
  2  3  1  0
  3  4  2  0
  4  5  1  0
  5  6  2  0
  6  7  1  0
  7  8  2  0
  8  9  1  0
  9 10  1  0
 10 11  1  0
 11 12  2  0
 12 13  1  0
 13 14  2  0
 14 15  1  0
  8  3  1  0
 15 11  1  0
  1 16  1  0
  1 17  1  0
  1 18  1  0
  2 19  1  0
  2 20  1  0
  4 21  1  0
  5 22  1  0
  7 23  1  0
  9 24  1  0
 10 25  1  0
 10 26  1  0
 12 27  1  0
 14 28  1  0
 15 29  1  0
M  END
>  <Energy>  (1193) 
23.545934927337541

>  <compound_id>  (1193) 
6516

>  <target_id>  (1193) 
1

>  <reference_id>  (1193) 
60

>  <inspiration_ids>  (1193) 
[60, 64]

>  <energy_score>  (1193) 
-21.473939638663467

>  <distance_score>  (1193) 
14.193992624203766

>  <path>  (1193) 
/opt/xchem-fragalysis-2/maxwin/BulkDock/SCRATCH/511018/C6516-P60/C6516-P60.minimised.mol

>  <scratch_subdir>  (1193) 
/opt/xchem-fragalysis-2/maxwin/BulkDock/SCRATCH/511018/C6516-P60

>  <fragmenstein_runtime>  (1193) 
13.336950778961182

>  <fragmenstein_outcome>  (1193) 
too moved

>  <fragmenstein_mode>  (1193) 
expansion

>  <fragmenstein_error>  (1193) 


$$$$
C6516-P64
     RDKit          3D

 29 30  0  0  0  0  0  0  0  0999 V2000
    4.6467  -11.5021   21.4934 C   0  0  0  0  0  0  0  0  0  0  0  0
    5.1597  -11.9004   22.8698 C   0  0  0  0  0  0  0  0  0  0  0  0
    5.6248  -13.3374   22.9097 C   0  0  0  0  0  0  0  0  0  0  0  0
    4.6219  -14.3359   23.0755 C   0  0  0  0  0  0  0  0  0  0  0  0
    4.9850  -15.6680   23.2032 C   0  0  0  0  0  0  0  0  0  0  0  0
    6.2541  -16.0775   23.1889 N   0  0  0  0  0  0  0  0  0  0  0  0
    7.1914  -15.1031   23.0279 C   0  0  0  0  0  0  0  0  0  0  0  0
    6.9857  -13.7106   22.8512 C   0  0  0  0  0  0  0  0  0  0  0  0
    8.1182  -12.8412   22.7974 N   0  0  0  0  0  0  0  0  0  0  0  0
    8.3368  -11.8437   21.7296 C   0  0  0  0  0  0  0  0  0  0  0  0
    9.6007  -11.0513   21.9325 C   0  0  0  0  0  0  0  0  0  0  0  0
   10.4144  -10.3449   21.0680 C   0  0  0  0  0  0  0  0  0  0  0  0
   11.4209   -9.6990   21.7461 N   0  0  0  0  0  0  0  0  0  0  0  0
   11.2780  -10.0570   23.0001 C   0  0  0  0  0  0  0  0  0  0  0  0
   10.1870  -10.8638   23.1646 N   0  0  0  0  0  0  0  0  0  0  0  0
    4.3532  -10.4476   21.4905 H   0  0  0  0  0  0  0  0  0  0  0  0
    5.4080  -11.6470   20.7204 H   0  0  0  0  0  0  0  0  0  0  0  0
    3.7705  -12.0954   21.2101 H   0  0  0  0  0  0  0  0  0  0  0  0
    5.9546  -11.2233   23.1971 H   0  0  0  0  0  0  0  0  0  0  0  0
    4.3566  -11.7644   23.6061 H   0  0  0  0  0  0  0  0  0  0  0  0
    3.5773  -14.0502   23.1239 H   0  0  0  0  0  0  0  0  0  0  0  0
    4.2780  -16.4740   23.3267 H   0  0  0  0  0  0  0  0  0  0  0  0
    8.2062  -15.4981   23.0475 H   0  0  0  0  0  0  0  0  0  0  0  0
    8.9517  -13.4322   22.8108 H   0  0  0  0  0  0  0  0  0  0  0  0
    8.3879  -12.3615   20.7646 H   0  0  0  0  0  0  0  0  0  0  0  0
    7.5092  -11.1334   21.6839 H   0  0  0  0  0  0  0  0  0  0  0  0
   10.3089  -10.2467   19.9964 H   0  0  0  0  0  0  0  0  0  0  0  0
   11.9184   -9.7667   23.8230 H   0  0  0  0  0  0  0  0  0  0  0  0
    9.8586  -11.2663   24.0339 H   0  0  0  0  0  0  0  0  0  0  0  0
  1  2  1  0
  2  3  1  0
  3  4  2  0
  4  5  1  0
  5  6  2  0
  6  7  1  0
  7  8  2  0
  8  9  1  0
  9 10  1  0
 10 11  1  0
 11 12  2  0
 12 13  1  0
 13 14  2  0
 14 15  1  0
  8  3  1  0
 15 11  1  0
  1 16  1  0
  1 17  1  0
  1 18  1  0
  2 19  1  0
  2 20  1  0
  4 21  1  0
  5 22  1  0
  7 23  1  0
  9 24  1  0
 10 25  1  0
 10 26  1  0
 12 27  1  0
 14 28  1  0
 15 29  1  0
M  END
>  <Energy>  (1194) 
27.244897941794527

>  <compound_id>  (1194) 
6516

>  <target_id>  (1194) 
1

>  <reference_id>  (1194) 
64

>  <inspiration_ids>  (1194) 
[60, 64]

>  <energy_score>  (1194) 
-17.774976624203674

>  <distance_score>  (1194) 
14.328702502965955

>  <path>  (1194) 
/opt/xchem-fragalysis-2/maxwin/BulkDock/SCRATCH/511018/C6516-P64/C6516-P64.minimised.mol

>  <scratch_subdir>  (1194) 
/opt/xchem-fragalysis-2/maxwin/BulkDock/SCRATCH/511018/C6516-P64

>  <fragmenstein_runtime>  (1194) 
13.114438533782959

>  <fragmenstein_outcome>  (1194) 
too moved

>  <fragmenstein_mode>  (1194) 
expansion

>  <fragmenstein_error>  (1194) 


$$$$
C6520-P60
     RDKit          3D

 36 38  0  0  0  0  0  0  0  0999 V2000
    5.6314  -12.0315   15.1439 O   0  0  0  0  0  0  0  0  0  0  0  0
    4.6999  -11.9000   15.8462 C   0  0  0  0  0  0  0  0  0  0  0  0
    3.9748  -10.6617   16.2579 N   0  0  0  0  0  0  0  0  0  0  0  0
    4.2493   -9.3392   16.0075 C   0  0  0  0  0  0  0  0  0  0  0  0
    5.2491   -8.7562   15.2526 C   0  0  0  0  0  0  0  0  0  0  0  0
    5.3073   -7.3968   15.4703 N   0  0  0  0  0  0  0  0  0  0  0  0
    4.3202   -7.1401   16.2934 C   0  0  0  0  0  0  0  0  0  0  0  0
    3.6384   -8.2808   16.6273 N   0  0  0  0  0  0  0  0  0  0  0  0
    3.9479  -12.9586   16.6879 N   0  0  0  0  0  0  0  0  0  0  0  0
    4.2320  -14.3243   16.9131 C   0  0  0  0  0  0  0  0  0  0  0  0
    5.6529  -14.5050   16.8986 C   0  0  0  0  0  0  0  0  0  0  0  0
    6.2554  -15.6549   17.3505 C   0  0  0  0  0  0  0  0  0  0  0  0
    5.4048  -16.6381   17.7661 C   0  0  0  0  0  0  0  0  0  0  0  0
    4.0474  -16.5425   17.7560 N   0  0  0  0  0  0  0  0  0  0  0  0
    3.4059  -15.4033   17.3631 C   0  0  0  0  0  0  0  0  0  0  0  0
    1.9973  -15.4393   17.4908 N   0  0  0  0  0  0  0  0  0  0  0  0
    1.3857  -16.6664   18.1090 C   0  0  0  0  0  0  0  0  0  0  0  0
    0.0532  -16.9178   17.4011 C   0  0  0  0  0  0  0  0  0  0  0  0
   -0.2433  -15.5930   16.7369 C   0  0  0  0  0  0  0  0  0  0  0  0
    1.1531  -15.0616   16.3630 C   0  0  0  0  0  0  0  0  0  0  0  0
    3.2733  -10.8985   16.9338 H   0  0  0  0  0  0  0  0  0  0  0  0
    5.9728   -9.2556   14.6184 H   0  0  0  0  0  0  0  0  0  0  0  0
    4.0467   -6.1670   16.6790 H   0  0  0  0  0  0  0  0  0  0  0  0
    2.8595   -8.3339   17.2664 H   0  0  0  0  0  0  0  0  0  0  0  0
    3.1471  -12.5384   17.1105 H   0  0  0  0  0  0  0  0  0  0  0  0
    6.3244  -13.7015   16.6080 H   0  0  0  0  0  0  0  0  0  0  0  0
    7.3299  -15.7723   17.3746 H   0  0  0  0  0  0  0  0  0  0  0  0
    5.7867  -17.5865   18.1322 H   0  0  0  0  0  0  0  0  0  0  0  0
    1.9938  -17.5721   18.0190 H   0  0  0  0  0  0  0  0  0  0  0  0
    1.1781  -16.4735   19.1612 H   0  0  0  0  0  0  0  0  0  0  0  0
    0.1801  -17.6963   16.6395 H   0  0  0  0  0  0  0  0  0  0  0  0
   -0.7354  -17.2404   18.0867 H   0  0  0  0  0  0  0  0  0  0  0  0
   -0.8902  -15.6954   15.8608 H   0  0  0  0  0  0  0  0  0  0  0  0
   -0.7333  -14.9123   17.4397 H   0  0  0  0  0  0  0  0  0  0  0  0
    1.5008  -15.5401   15.4391 H   0  0  0  0  0  0  0  0  0  0  0  0
    1.1321  -13.9771   16.2171 H   0  0  0  0  0  0  0  0  0  0  0  0
  1  2  2  0
  2  3  1  0
  3  4  1  0
  4  5  2  0
  5  6  1  0
  6  7  2  0
  7  8  1  0
  2  9  1  0
  9 10  1  0
 10 11  2  0
 11 12  1  0
 12 13  2  0
 13 14  1  0
 14 15  2  0
 15 16  1  0
 16 17  1  0
 17 18  1  0
 18 19  1  0
 19 20  1  0
  8  4  1  0
 15 10  1  0
 20 16  1  0
  3 21  1  0
  5 22  1  0
  7 23  1  0
  8 24  1  0
  9 25  1  0
 11 26  1  0
 12 27  1  0
 13 28  1  0
 17 29  1  0
 17 30  1  0
 18 31  1  0
 18 32  1  0
 19 33  1  0
 19 34  1  0
 20 35  1  0
 20 36  1  0
M  END
>  <Energy>  (1195) 
20.610219359015158

>  <compound_id>  (1195) 
6520

>  <target_id>  (1195) 
1

>  <reference_id>  (1195) 
60

>  <inspiration_ids>  (1195) 
[60, 64]

>  <energy_score>  (1195) 
-41.42966008620107

>  <distance_score>  (1195) 
14.572484108266604

>  <path>  (1195) 
/opt/xchem-fragalysis-2/maxwin/BulkDock/SCRATCH/511018/C6520-P60/C6520-P60.minimised.mol

>  <scratch_subdir>  (1195) 
/opt/xchem-fragalysis-2/maxwin/BulkDock/SCRATCH/511018/C6520-P60

>  <fragmenstein_runtime>  (1195) 
15.950052261352539

>  <fragmenstein_outcome>  (1195) 
too moved

>  <fragmenstein_mode>  (1195) 
expansion

>  <fragmenstein_error>  (1195) 


$$$$
C6520-P64
     RDKit          3D

 36 38  0  0  0  0  0  0  0  0999 V2000
   10.4220  -11.3011   24.8391 O   0  0  0  0  0  0  0  0  0  0  0  0
    9.5808  -10.5770   25.2162 C   0  0  0  0  0  0  0  0  0  0  0  0
    9.5704   -9.0760   25.3134 N   0  0  0  0  0  0  0  0  0  0  0  0
   10.5618   -8.1568   25.0642 C   0  0  0  0  0  0  0  0  0  0  0  0
   11.7165   -8.2920   24.3124 C   0  0  0  0  0  0  0  0  0  0  0  0
   12.3996   -7.1044   24.2293 N   0  0  0  0  0  0  0  0  0  0  0  0
   11.7473   -6.2785   25.0142 C   0  0  0  0  0  0  0  0  0  0  0  0
   10.6168   -6.8658   25.5342 N   0  0  0  0  0  0  0  0  0  0  0  0
    8.2293  -10.9000   25.8408 N   0  0  0  0  0  0  0  0  0  0  0  0
    7.6671  -12.1333   26.2202 C   0  0  0  0  0  0  0  0  0  0  0  0
    8.6234  -12.9027   26.9068 C   0  0  0  0  0  0  0  0  0  0  0  0
    8.2727  -14.1051   27.4724 C   0  0  0  0  0  0  0  0  0  0  0  0
    6.9695  -14.5114   27.3167 C   0  0  0  0  0  0  0  0  0  0  0  0
    6.0351  -13.8418   26.5992 N   0  0  0  0  0  0  0  0  0  0  0  0
    6.3466  -12.6685   26.0214 C   0  0  0  0  0  0  0  0  0  0  0  0
    5.4156  -12.2410   25.0580 N   0  0  0  0  0  0  0  0  0  0  0  0
    3.7120  -13.0292   24.2973 C   0  0  0  0  0  0  0  0  0  0  0  0
    3.5090  -12.2554   22.8932 C   0  0  0  0  0  0  0  0  0  0  0  0
    4.8059  -11.0238   22.5850 C   0  0  0  0  0  0  0  0  0  0  0  0
    6.0730  -11.3411   23.9129 C   0  0  0  0  0  0  0  0  0  0  0  0
    8.7200   -8.7776   25.7587 H   0  0  0  0  0  0  0  0  0  0  0  0
   12.0680   -9.1764   23.7942 H   0  0  0  0  0  0  0  0  0  0  0  0
   12.0067   -5.2471   25.2191 H   0  0  0  0  0  0  0  0  0  0  0  0
    9.9422   -6.3897   26.1169 H   0  0  0  0  0  0  0  0  0  0  0  0
    7.7128  -10.0508   25.9734 H   0  0  0  0  0  0  0  0  0  0  0  0
    9.6447  -12.5542   27.0447 H   0  0  0  0  0  0  0  0  0  0  0  0
    8.9858  -14.7051   28.0248 H   0  0  0  0  0  0  0  0  0  0  0  0
    6.6231  -15.4478   27.7470 H   0  0  0  0  0  0  0  0  0  0  0  0
    2.6618  -12.9381   24.6274 H   0  0  0  0  0  0  0  0  0  0  0  0
    3.8399  -14.1393   24.3126 H   0  0  0  0  0  0  0  0  0  0  0  0
    2.5669  -11.7753   23.0660 H   0  0  0  0  0  0  0  0  0  0  0  0
    3.4151  -12.8551   21.9933 H   0  0  0  0  0  0  0  0  0  0  0  0
    5.7374  -10.9807   21.9903 H   0  0  0  0  0  0  0  0  0  0  0  0
    4.6978  -11.4565   21.5646 H   0  0  0  0  0  0  0  0  0  0  0  0
    6.4173  -10.3949   24.3237 H   0  0  0  0  0  0  0  0  0  0  0  0
    6.9928  -11.7869   23.5218 H   0  0  0  0  0  0  0  0  0  0  0  0
  1  2  2  0
  2  3  1  0
  3  4  1  0
  4  5  2  0
  5  6  1  0
  6  7  2  0
  7  8  1  0
  2  9  1  0
  9 10  1  0
 10 11  2  0
 11 12  1  0
 12 13  2  0
 13 14  1  0
 14 15  2  0
 15 16  1  0
 16 17  1  0
 17 18  1  0
 18 19  1  0
 19 20  1  0
  8  4  1  0
 15 10  1  0
 20 16  1  0
  3 21  1  0
  5 22  1  0
  7 23  1  0
  8 24  1  0
  9 25  1  0
 11 26  1  0
 12 27  1  0
 13 28  1  0
 17 29  1  0
 17 30  1  0
 18 31  1  0
 18 32  1  0
 19 33  1  0
 19 34  1  0
 20 35  1  0
 20 36  1  0
M  END
>  <Energy>  (1196) 
248.87200399396889

>  <compound_id>  (1196) 
6520

>  <target_id>  (1196) 
1

>  <reference_id>  (1196) 
64

>  <inspiration_ids>  (1196) 
[60, 64]

>  <energy_score>  (1196) 
186.8321245487523

>  <distance_score>  (1196) 
14.866482514200188

>  <path>  (1196) 
/opt/xchem-fragalysis-2/maxwin/BulkDock/SCRATCH/511018/C6520-P64/C6520-P64.minimised.mol

>  <scratch_subdir>  (1196) 
/opt/xchem-fragalysis-2/maxwin/BulkDock/SCRATCH/511018/C6520-P64

>  <fragmenstein_runtime>  (1196) 
23.90683650970459

>  <fragmenstein_outcome>  (1196) 
too moved

>  <fragmenstein_mode>  (1196) 
expansion

>  <fragmenstein_error>  (1196) 


$$$$
C6535-P52
     RDKit          3D

 38 40  0  0  0  0  0  0  0  0999 V2000
   -2.5602   -7.9345   32.1557 C   0  0  0  0  0  0  0  0  0  0  0  0
   -3.3054   -7.7434   33.4913 C   0  0  0  0  0  0  0  0  0  0  0  0
   -3.7493   -9.4677   34.2658 C   0  0  0  0  0  0  0  0  0  0  0  0
   -4.6308  -11.1552   34.2589 N   0  0  0  0  0  0  0  0  0  0  0  0
   -4.7963  -12.1076   35.2243 C   0  0  0  0  0  0  0  0  0  0  0  0
   -4.3447  -12.1775   36.3161 O   0  0  0  0  0  0  0  0  0  0  0  0
   -6.1926  -13.3568   34.4046 C   0  0  0  0  0  0  0  0  0  0  0  0
   -6.2934  -14.2934   33.2959 C   0  0  0  0  0  0  0  0  0  0  0  0
   -7.2426  -15.3527   33.1548 C   0  0  0  0  0  0  0  0  0  0  0  0
   -8.3720  -15.3446   33.9588 C   0  0  0  0  0  0  0  0  0  0  0  0
   -9.6208  -15.8676   33.9657 N   0  0  0  0  0  0  0  0  0  0  0  0
  -10.3963  -15.2739   34.9343 C   0  0  0  0  0  0  0  0  0  0  0  0
   -9.6490  -14.5364   35.7049 N   0  0  0  0  0  0  0  0  0  0  0  0
   -8.4462  -14.5360   35.0407 C   0  0  0  0  0  0  0  0  0  0  0  0
   -7.3868  -13.6552   35.1648 C   0  0  0  0  0  0  0  0  0  0  0  0
   -3.0842   -6.2493   33.5560 N   0  0  0  0  0  0  0  0  0  0  0  0
   -2.8138   -5.2582   32.4705 C   0  0  0  0  0  0  0  0  0  0  0  0
   -2.7922   -5.3979   31.2777 O   0  0  0  0  0  0  0  0  0  0  0  0
   -2.3921   -3.8940   32.8250 C   0  0  0  0  0  0  0  0  0  0  0  0
   -2.5351   -2.9769   33.8312 C   0  0  0  0  0  0  0  0  0  0  0  0
   -1.9089   -1.7301   33.5111 C   0  0  0  0  0  0  0  0  0  0  0  0
   -1.1932   -1.6639   32.4009 N   0  0  0  0  0  0  0  0  0  0  0  0
   -1.3207   -3.1211   31.6434 S   0  0  0  0  0  0  0  0  0  0  0  0
   -3.2210   -7.9258   31.2804 H   0  0  0  0  0  0  0  0  0  0  0  0
   -1.9466   -8.7889   32.3555 H   0  0  0  0  0  0  0  0  0  0  0  0
   -1.8637   -7.2118   31.7881 H   0  0  0  0  0  0  0  0  0  0  0  0
   -2.4367   -7.7762   34.1692 H   0  0  0  0  0  0  0  0  0  0  0  0
   -3.2478   -9.1482   35.0993 H   0  0  0  0  0  0  0  0  0  0  0  0
   -3.1594   -9.8976   33.4840 H   0  0  0  0  0  0  0  0  0  0  0  0
   -5.0418  -11.4366   33.5155 H   0  0  0  0  0  0  0  0  0  0  0  0
   -5.5050  -14.3780   32.5515 H   0  0  0  0  0  0  0  0  0  0  0  0
   -7.0588  -16.0621   32.3662 H   0  0  0  0  0  0  0  0  0  0  0  0
   -9.9906  -16.5790   33.3682 H   0  0  0  0  0  0  0  0  0  0  0  0
  -11.4507  -15.4843   35.0439 H   0  0  0  0  0  0  0  0  0  0  0  0
   -7.8429  -12.9414   35.7915 H   0  0  0  0  0  0  0  0  0  0  0  0
   -3.1025   -5.7661   34.4526 H   0  0  0  0  0  0  0  0  0  0  0  0
   -3.1455   -3.1064   34.6977 H   0  0  0  0  0  0  0  0  0  0  0  0
   -1.9715   -0.8256   34.0953 H   0  0  0  0  0  0  0  0  0  0  0  0
  1  2  1  0
  2  3  1  0
  3  4  1  0
  4  5  1  0
  5  6  2  0
  5  7  1  0
  7  8  2  0
  8  9  1  0
  9 10  2  0
 10 11  1  0
 11 12  1  0
 12 13  2  0
 13 14  1  0
 14 15  2  0
  2 16  1  0
 16 17  1  0
 17 18  2  0
 17 19  1  0
 19 20  2  0
 20 21  1  0
 21 22  2  0
 22 23  1  0
 15  7  1  0
 23 19  1  0
 14 10  1  0
  1 24  1  0
  1 25  1  0
  1 26  1  0
  2 27  1  0
  3 28  1  0
  3 29  1  0
  4 30  1  0
  8 31  1  0
  9 32  1  0
 11 33  1  0
 12 34  1  0
 15 35  1  0
 16 36  1  0
 20 37  1  0
 21 38  1  0
M  END
>  <Energy>  (1197) 
384.42468142130127

>  <compound_id>  (1197) 
6535

>  <target_id>  (1197) 
1

>  <reference_id>  (1197) 
52

>  <inspiration_ids>  (1197) 
[52, 187]

>  <energy_score>  (1197) 
356.22632561575887

>  <distance_score>  (1197) 
7.008875324865539

>  <path>  (1197) 
/opt/xchem-fragalysis-2/maxwin/BulkDock/SCRATCH/511018/C6535-P52/C6535-P52.minimised.mol

>  <scratch_subdir>  (1197) 
/opt/xchem-fragalysis-2/maxwin/BulkDock/SCRATCH/511018/C6535-P52

>  <fragmenstein_runtime>  (1197) 
29.5884792804718

>  <fragmenstein_outcome>  (1197) 
too moved

>  <fragmenstein_mode>  (1197) 
expansion

>  <fragmenstein_error>  (1197) 


$$$$
C6535-P187
     RDKit          3D

 38 40  0  0  0  0  0  0  0  0999 V2000
   -1.0449  -11.5223   30.4549 C   0  0  0  0  0  0  0  0  0  0  0  0
   -2.6506  -12.8048   30.0961 C   0  0  0  0  0  0  0  0  0  0  0  0
   -3.0815  -14.7041   31.1645 C   0  0  0  0  0  0  0  0  0  0  0  0
   -4.3402  -16.3716   31.3692 N   0  0  0  0  0  0  0  0  0  0  0  0
   -5.1484  -17.3055   32.9587 C   0  0  0  0  0  0  0  0  0  0  0  0
   -4.8563  -16.9804   34.8107 O   0  0  0  0  0  0  0  0  0  0  0  0
   -6.6448  -18.6549   32.7450 C   0  0  0  0  0  0  0  0  0  0  0  0
   -6.6418  -19.9689   33.1166 C   0  0  0  0  0  0  0  0  0  0  0  0
   -7.7991  -20.6317   33.2649 C   0  0  0  0  0  0  0  0  0  0  0  0
   -8.9540  -20.0253   33.8062 C   0  0  0  0  0  0  0  0  0  0  0  0
  -10.2143  -20.4135   34.2024 N   0  0  0  0  0  0  0  0  0  0  0  0
  -10.8223  -19.2982   34.7015 C   0  0  0  0  0  0  0  0  0  0  0  0
  -10.1066  -18.2207   34.4522 N   0  0  0  0  0  0  0  0  0  0  0  0
   -8.9917  -18.6818   33.8290 C   0  0  0  0  0  0  0  0  0  0  0  0
   -7.9566  -18.1158   32.9879 C   0  0  0  0  0  0  0  0  0  0  0  0
   -2.1591  -10.9200   29.8117 N   0  0  0  0  0  0  0  0  0  0  0  0
   -1.7591   -9.5543   31.0534 C   0  0  0  0  0  0  0  0  0  0  0  0
   -1.8472   -9.6438   32.2507 O   0  0  0  0  0  0  0  0  0  0  0  0
   -1.1489   -8.2175   30.6889 C   0  0  0  0  0  0  0  0  0  0  0  0
   -1.0249   -7.3386   29.6609 C   0  0  0  0  0  0  0  0  0  0  0  0
   -0.2617   -6.1616   30.0076 C   0  0  0  0  0  0  0  0  0  0  0  0
    0.2018   -6.0830   31.2380 N   0  0  0  0  0  0  0  0  0  0  0  0
   -0.3779   -7.3805   32.0646 S   0  0  0  0  0  0  0  0  0  0  0  0
   -1.2113  -11.2667   31.4312 H   0  0  0  0  0  0  0  0  0  0  0  0
   -0.4836  -10.5401   29.9971 H   0  0  0  0  0  0  0  0  0  0  0  0
    0.0011  -11.8140   30.5108 H   0  0  0  0  0  0  0  0  0  0  0  0
   -2.4291  -13.1307   29.0765 H   0  0  0  0  0  0  0  0  0  0  0  0
   -2.3604  -15.2906   30.5730 H   0  0  0  0  0  0  0  0  0  0  0  0
   -2.6592  -14.6516   32.1615 H   0  0  0  0  0  0  0  0  0  0  0  0
   -4.7810  -16.7398   30.5386 H   0  0  0  0  0  0  0  0  0  0  0  0
   -5.7078  -20.4426   32.9916 H   0  0  0  0  0  0  0  0  0  0  0  0
   -7.7778  -21.5749   32.7808 H   0  0  0  0  0  0  0  0  0  0  0  0
  -10.5745  -21.3583   34.1945 H   0  0  0  0  0  0  0  0  0  0  0  0
  -11.7900  -19.3180   35.1815 H   0  0  0  0  0  0  0  0  0  0  0  0
   -8.1892  -17.1171   32.7521 H   0  0  0  0  0  0  0  0  0  0  0  0
   -1.9191  -10.6148   28.8722 H   0  0  0  0  0  0  0  0  0  0  0  0
   -1.5546   -7.4635   28.7373 H   0  0  0  0  0  0  0  0  0  0  0  0
   -0.0701   -5.3055   29.3718 H   0  0  0  0  0  0  0  0  0  0  0  0
  1  2  1  0
  2  3  1  0
  3  4  1  0
  4  5  1  0
  5  6  2  0
  5  7  1  0
  7  8  2  0
  8  9  1  0
  9 10  2  0
 10 11  1  0
 11 12  1  0
 12 13  2  0
 13 14  1  0
 14 15  2  0
  2 16  1  0
 16 17  1  0
 17 18  2  0
 17 19  1  0
 19 20  2  0
 20 21  1  0
 21 22  2  0
 22 23  1  0
 15  7  1  0
 23 19  1  0
 14 10  1  0
  1 24  1  0
  1 25  1  0
  1 26  1  0
  2 27  1  0
  3 28  1  0
  3 29  1  0
  4 30  1  0
  8 31  1  0
  9 32  1  0
 11 33  1  0
 12 34  1  0
 15 35  1  0
 16 36  1  0
 20 37  1  0
 21 38  1  0
M  END
>  <Energy>  (1198) 
1377.5501720918344

>  <compound_id>  (1198) 
6535

>  <target_id>  (1198) 
1

>  <reference_id>  (1198) 
187

>  <inspiration_ids>  (1198) 
[52, 187]

>  <energy_score>  (1198) 
1349.3518162863206

>  <distance_score>  (1198) 
6.227185380709346

>  <path>  (1198) 
/opt/xchem-fragalysis-2/maxwin/BulkDock/SCRATCH/511018/C6535-P187/C6535-P187.minimised.mol

>  <scratch_subdir>  (1198) 
/opt/xchem-fragalysis-2/maxwin/BulkDock/SCRATCH/511018/C6535-P187

>  <fragmenstein_runtime>  (1198) 
27.767335891723633

>  <fragmenstein_outcome>  (1198) 
too moved

>  <fragmenstein_mode>  (1198) 
expansion

>  <fragmenstein_error>  (1198) 


$$$$
C6548-P52
     RDKit          3D

 37 39  0  0  0  0  0  0  0  0999 V2000
   -0.3277  -15.6910   29.1201 C   0  0  0  0  0  0  0  0  0  0  0  0
   -0.1842  -15.6282   30.6267 C   0  0  0  0  0  0  0  0  0  0  0  0
   -1.4082  -15.2254   31.2629 O   0  0  0  0  0  0  0  0  0  0  0  0
   -1.5694  -13.8624   31.4313 C   0  0  0  0  0  0  0  0  0  0  0  0
   -0.8298  -13.0714   30.8553 O   0  0  0  0  0  0  0  0  0  0  0  0
   -2.7334  -13.5073   32.5323 C   0  0  0  0  0  0  0  0  0  0  0  0
   -3.7054  -14.9210   31.9681 N   0  0  0  0  0  0  0  0  0  0  0  0
   -5.6497  -15.2254   31.7490 C   0  0  0  0  0  0  0  0  0  0  0  0
   -6.2897  -14.3328   32.1600 O   0  0  0  0  0  0  0  0  0  0  0  0
   -6.9387  -16.6240   30.7903 C   0  0  0  0  0  0  0  0  0  0  0  0
   -7.7514  -17.7420   29.1886 C   0  0  0  0  0  0  0  0  0  0  0  0
   -9.4479  -19.0986   29.6358 C   0  0  0  0  0  0  0  0  0  0  0  0
   -9.8455  -19.0714   31.4743 C   0  0  0  0  0  0  0  0  0  0  0  0
  -10.7949  -19.6915   32.2559 N   0  0  0  0  0  0  0  0  0  0  0  0
  -11.1015  -18.8487   33.3010 C   0  0  0  0  0  0  0  0  0  0  0  0
  -10.2440  -17.8574   33.5422 N   0  0  0  0  0  0  0  0  0  0  0  0
   -9.1281  -17.9418   32.6936 C   0  0  0  0  0  0  0  0  0  0  0  0
   -7.6604  -16.7330   32.6036 C   0  0  0  0  0  0  0  0  0  0  0  0
   -1.6489  -12.8989   33.5025 C   0  0  0  0  0  0  0  0  0  0  0  0
   -0.3033  -13.1382   33.7781 C   0  0  0  0  0  0  0  0  0  0  0  0
    0.3272  -11.9941   34.3663 C   0  0  0  0  0  0  0  0  0  0  0  0
   -0.4314  -10.9438   34.6400 N   0  0  0  0  0  0  0  0  0  0  0  0
   -1.9761  -11.2874   34.1814 S   0  0  0  0  0  0  0  0  0  0  0  0
   -0.9210  -16.5619   28.8316 H   0  0  0  0  0  0  0  0  0  0  0  0
   -0.8365  -14.8084   28.7247 H   0  0  0  0  0  0  0  0  0  0  0  0
    0.6521  -15.7872   28.6434 H   0  0  0  0  0  0  0  0  0  0  0  0
    0.6395  -14.9640   30.9145 H   0  0  0  0  0  0  0  0  0  0  0  0
    0.0685  -16.6208   31.0142 H   0  0  0  0  0  0  0  0  0  0  0  0
   -3.3700  -12.6740   32.6319 H   0  0  0  0  0  0  0  0  0  0  0  0
   -3.2325  -15.7229   31.6904 H   0  0  0  0  0  0  0  0  0  0  0  0
   -7.3570  -17.6427   28.1737 H   0  0  0  0  0  0  0  0  0  0  0  0
  -10.0119  -19.8648   29.0685 H   0  0  0  0  0  0  0  0  0  0  0  0
  -11.3913  -20.4456   31.9524 H   0  0  0  0  0  0  0  0  0  0  0  0
  -11.9791  -19.0311   33.9096 H   0  0  0  0  0  0  0  0  0  0  0  0
   -7.4678  -16.0599   33.4282 H   0  0  0  0  0  0  0  0  0  0  0  0
    0.2334  -14.0292   33.4807 H   0  0  0  0  0  0  0  0  0  0  0  0
    1.3787  -11.9157   34.6116 H   0  0  0  0  0  0  0  0  0  0  0  0
  1  2  1  0
  2  3  1  0
  3  4  1  0
  4  5  2  0
  4  6  1  0
  6  7  1  0
  7  8  1  0
  8  9  2  0
  8 10  1  0
 10 11  2  0
 11 12  1  0
 12 13  2  0
 13 14  1  0
 14 15  1  0
 15 16  2  0
 16 17  1  0
 17 18  2  0
  6 19  1  0
 19 20  2  0
 20 21  1  0
 21 22  2  0
 22 23  1  0
 18 10  1  0
 23 19  1  0
 17 13  1  0
  1 24  1  0
  1 25  1  0
  1 26  1  0
  2 27  1  0
  2 28  1  0
  6 29  1  0
  7 30  1  0
 11 31  1  0
 12 32  1  0
 14 33  1  0
 15 34  1  0
 18 35  1  0
 20 36  1  0
 21 37  1  0
M  END
>  <Energy>  (1199) 
1208.8099324412246

>  <compound_id>  (1199) 
6548

>  <target_id>  (1199) 
1

>  <reference_id>  (1199) 
52

>  <inspiration_ids>  (1199) 
[52, 187]

>  <energy_score>  (1199) 
1147.7775286567996

>  <distance_score>  (1199) 
9.476344796649975

>  <path>  (1199) 
/opt/xchem-fragalysis-2/maxwin/BulkDock/SCRATCH/511018/C6548-P52/C6548-P52.minimised.mol

>  <scratch_subdir>  (1199) 
/opt/xchem-fragalysis-2/maxwin/BulkDock/SCRATCH/511018/C6548-P52

>  <fragmenstein_runtime>  (1199) 
30.785905599594116

>  <fragmenstein_outcome>  (1199) 
too moved

>  <fragmenstein_mode>  (1199) 
expansion

>  <fragmenstein_error>  (1199) 


$$$$
C6548-P187
     RDKit          3D

 37 39  0  0  0  0  0  0  0  0999 V2000
    1.5100   -5.8979   32.6393 C   0  0  0  0  0  0  0  0  0  0  0  0
    0.2846   -6.7218   32.2971 C   0  0  0  0  0  0  0  0  0  0  0  0
   -0.2997   -7.1799   33.5224 O   0  0  0  0  0  0  0  0  0  0  0  0
   -1.5130   -7.7984   33.3589 C   0  0  0  0  0  0  0  0  0  0  0  0
   -1.8606   -8.2137   32.2583 O   0  0  0  0  0  0  0  0  0  0  0  0
   -2.3290   -7.9003   34.7212 C   0  0  0  0  0  0  0  0  0  0  0  0
   -3.5880   -8.7890   34.6336 N   0  0  0  0  0  0  0  0  0  0  0  0
   -4.6103   -8.9617   33.5091 C   0  0  0  0  0  0  0  0  0  0  0  0
   -4.7297   -8.3793   32.4538 O   0  0  0  0  0  0  0  0  0  0  0  0
   -5.5886  -10.0969   33.5770 C   0  0  0  0  0  0  0  0  0  0  0  0
   -5.7184  -11.2482   33.9246 C   0  0  0  0  0  0  0  0  0  0  0  0
   -6.2940  -12.9113   33.2197 C   0  0  0  0  0  0  0  0  0  0  0  0
   -6.6672  -13.2468   31.9635 C   0  0  0  0  0  0  0  0  0  0  0  0
   -7.3773  -14.3897   31.5709 N   0  0  0  0  0  0  0  0  0  0  0  0
   -8.6599  -14.1425   32.6091 C   0  0  0  0  0  0  0  0  0  0  0  0
   -8.5079  -12.8478   33.1126 N   0  0  0  0  0  0  0  0  0  0  0  0
   -7.2805  -12.1268   32.4568 C   0  0  0  0  0  0  0  0  0  0  0  0
   -5.9820  -10.9577   32.6648 C   0  0  0  0  0  0  0  0  0  0  0  0
   -2.0036   -6.7962   35.6982 C   0  0  0  0  0  0  0  0  0  0  0  0
   -1.3586   -5.5743   35.4981 C   0  0  0  0  0  0  0  0  0  0  0  0
   -1.0861   -4.9132   36.7180 C   0  0  0  0  0  0  0  0  0  0  0  0
   -1.4195   -5.5693   37.8216 N   0  0  0  0  0  0  0  0  0  0  0  0
   -2.0580   -7.0409   37.3946 S   0  0  0  0  0  0  0  0  0  0  0  0
    1.2305   -5.0254   33.2391 H   0  0  0  0  0  0  0  0  0  0  0  0
    2.2149   -6.4797   33.2411 H   0  0  0  0  0  0  0  0  0  0  0  0
    2.0135   -5.5524   31.7324 H   0  0  0  0  0  0  0  0  0  0  0  0
    0.5583   -7.5746   31.6715 H   0  0  0  0  0  0  0  0  0  0  0  0
   -0.4330   -6.0943   31.7552 H   0  0  0  0  0  0  0  0  0  0  0  0
   -1.6909   -8.6246   35.2302 H   0  0  0  0  0  0  0  0  0  0  0  0
   -3.7371   -9.5025   35.3344 H   0  0  0  0  0  0  0  0  0  0  0  0
   -5.4279  -11.0434   35.0394 H   0  0  0  0  0  0  0  0  0  0  0  0
   -5.6659  -13.6940   33.6473 H   0  0  0  0  0  0  0  0  0  0  0  0
   -6.8534  -15.2337   31.4701 H   0  0  0  0  0  0  0  0  0  0  0  0
   -9.3438  -14.9552   32.8014 H   0  0  0  0  0  0  0  0  0  0  0  0
   -5.5974  -10.6127   31.6887 H   0  0  0  0  0  0  0  0  0  0  0  0
   -1.1231   -5.1468   34.5331 H   0  0  0  0  0  0  0  0  0  0  0  0
   -0.6339   -3.9365   36.8307 H   0  0  0  0  0  0  0  0  0  0  0  0
  1  2  1  0
  2  3  1  0
  3  4  1  0
  4  5  2  0
  4  6  1  0
  6  7  1  0
  7  8  1  0
  8  9  2  0
  8 10  1  0
 10 11  2  0
 11 12  1  0
 12 13  2  0
 13 14  1  0
 14 15  1  0
 15 16  2  0
 16 17  1  0
 17 18  2  0
  6 19  1  0
 19 20  2  0
 20 21  1  0
 21 22  2  0
 22 23  1  0
 18 10  1  0
 23 19  1  0
 17 13  1  0
  1 24  1  0
  1 25  1  0
  1 26  1  0
  2 27  1  0
  2 28  1  0
  6 29  1  0
  7 30  1  0
 11 31  1  0
 12 32  1  0
 14 33  1  0
 15 34  1  0
 18 35  1  0
 20 36  1  0
 21 37  1  0
M  END
>  <Energy>  (1200) 
564.64065855182105

>  <compound_id>  (1200) 
6548

>  <target_id>  (1200) 
1

>  <reference_id>  (1200) 
187

>  <inspiration_ids>  (1200) 
[52, 187]

>  <energy_score>  (1200) 
503.6082547673766

>  <distance_score>  (1200) 
9.16891790929702

>  <path>  (1200) 
/opt/xchem-fragalysis-2/maxwin/BulkDock/SCRATCH/511018/C6548-P187/C6548-P187.minimised.mol

>  <scratch_subdir>  (1200) 
/opt/xchem-fragalysis-2/maxwin/BulkDock/SCRATCH/511018/C6548-P187

>  <fragmenstein_runtime>  (1200) 
25.46910786628723

>  <fragmenstein_outcome>  (1200) 
too moved

>  <fragmenstein_mode>  (1200) 
expansion

>  <fragmenstein_error>  (1200) 


$$$$
C6549-P52
     RDKit          3D

 42 44  0  0  0  0  0  0  0  0999 V2000
   -5.8848   -7.4055   32.5152 C   0  0  0  0  0  0  0  0  0  0  0  0
   -6.0613   -8.6037   31.0640 C   0  0  0  0  0  0  0  0  0  0  0  0
   -6.7607  -10.4982   30.9947 N   0  0  0  0  0  0  0  0  0  0  0  0
   -8.1862  -11.3920   31.9812 C   0  0  0  0  0  0  0  0  0  0  0  0
   -8.8842  -10.7458   32.6938 O   0  0  0  0  0  0  0  0  0  0  0  0
   -8.1416  -12.8878   31.7792 N   0  0  0  0  0  0  0  0  0  0  0  0
   -8.9959  -14.1777   32.5981 C   0  0  0  0  0  0  0  0  0  0  0  0
   -9.8231  -14.3201   34.1177 C   0  0  0  0  0  0  0  0  0  0  0  0
  -10.4488  -15.6349   34.6187 C   0  0  0  0  0  0  0  0  0  0  0  0
  -11.8557  -16.0278   34.7334 N   0  0  0  0  0  0  0  0  0  0  0  0
  -12.8978  -15.2391   35.1276 C   0  0  0  0  0  0  0  0  0  0  0  0
  -14.0274  -15.9106   35.2283 N   0  0  0  0  0  0  0  0  0  0  0  0
  -13.7195  -17.2082   34.9128 C   0  0  0  0  0  0  0  0  0  0  0  0
  -14.5578  -18.3370   34.7942 C   0  0  0  0  0  0  0  0  0  0  0  0
  -14.0272  -19.5662   34.3715 C   0  0  0  0  0  0  0  0  0  0  0  0
  -12.6830  -19.6663   34.0435 C   0  0  0  0  0  0  0  0  0  0  0  0
  -11.8595  -18.5347   34.1148 C   0  0  0  0  0  0  0  0  0  0  0  0
  -12.3708  -17.3186   34.5984 C   0  0  0  0  0  0  0  0  0  0  0  0
   -4.3256   -7.8646   30.6959 C   0  0  0  0  0  0  0  0  0  0  0  0
   -2.9959   -7.7362   31.2339 C   0  0  0  0  0  0  0  0  0  0  0  0
   -2.3386   -7.6522   30.0055 C   0  0  0  0  0  0  0  0  0  0  0  0
   -2.4852   -6.4254   29.5544 N   0  0  0  0  0  0  0  0  0  0  0  0
   -3.9424   -6.1870   30.2535 S   0  0  0  0  0  0  0  0  0  0  0  0
   -6.1168   -6.4028   32.1855 H   0  0  0  0  0  0  0  0  0  0  0  0
   -4.8643   -7.2742   32.8938 H   0  0  0  0  0  0  0  0  0  0  0  0
   -6.4229   -7.4584   33.4613 H   0  0  0  0  0  0  0  0  0  0  0  0
   -6.3664   -8.0846   30.1634 H   0  0  0  0  0  0  0  0  0  0  0  0
   -6.3184  -11.1690   30.3728 H   0  0  0  0  0  0  0  0  0  0  0  0
   -7.4997  -13.0974   31.0492 H   0  0  0  0  0  0  0  0  0  0  0  0
   -8.2215  -14.9266   32.6862 H   0  0  0  0  0  0  0  0  0  0  0  0
   -9.9431  -14.1650   32.1263 H   0  0  0  0  0  0  0  0  0  0  0  0
   -9.0854  -14.0590   34.8914 H   0  0  0  0  0  0  0  0  0  0  0  0
  -10.6748  -13.6429   34.0992 H   0  0  0  0  0  0  0  0  0  0  0  0
  -10.1824  -15.6203   35.6832 H   0  0  0  0  0  0  0  0  0  0  0  0
   -9.9621  -16.4102   34.0271 H   0  0  0  0  0  0  0  0  0  0  0  0
  -12.7810  -14.1844   35.3335 H   0  0  0  0  0  0  0  0  0  0  0  0
  -15.6135  -18.2478   35.0306 H   0  0  0  0  0  0  0  0  0  0  0  0
  -14.6744  -20.4388   34.2876 H   0  0  0  0  0  0  0  0  0  0  0  0
  -12.2884  -20.6090   33.6712 H   0  0  0  0  0  0  0  0  0  0  0  0
  -10.8934  -18.5521   33.6384 H   0  0  0  0  0  0  0  0  0  0  0  0
   -2.5854   -8.1952   32.1294 H   0  0  0  0  0  0  0  0  0  0  0  0
   -1.8273   -8.3913   29.3958 H   0  0  0  0  0  0  0  0  0  0  0  0
  1  2  1  0
  2  3  1  0
  3  4  1  0
  4  5  2  0
  4  6  1  0
  6  7  1  0
  7  8  1  0
  8  9  1  0
  9 10  1  0
 10 11  1  0
 11 12  2  0
 12 13  1  0
 13 14  2  0
 14 15  1  0
 15 16  2  0
 16 17  1  0
 17 18  2  0
  2 19  1  0
 19 20  2  0
 20 21  1  0
 21 22  2  0
 22 23  1  0
 18 10  1  0
 23 19  1  0
 18 13  1  0
  1 24  1  0
  1 25  1  0
  1 26  1  0
  2 27  1  0
  3 28  1  0
  6 29  1  0
  7 30  1  0
  7 31  1  0
  8 32  1  0
  8 33  1  0
  9 34  1  0
  9 35  1  0
 11 36  1  0
 14 37  1  0
 15 38  1  0
 16 39  1  0
 17 40  1  0
 20 41  1  0
 21 42  1  0
M  END
>  <Energy>  (1201) 
395.79671917535939

>  <compound_id>  (1201) 
6549

>  <target_id>  (1201) 
1

>  <reference_id>  (1201) 
52

>  <inspiration_ids>  (1201) 
[52, 187]

>  <energy_score>  (1201) 
443.27239657630025

>  <distance_score>  (1201) 
7.680726655465597

>  <path>  (1201) 
/opt/xchem-fragalysis-2/maxwin/BulkDock/SCRATCH/511018/C6549-P52/C6549-P52.minimised.mol

>  <scratch_subdir>  (1201) 
/opt/xchem-fragalysis-2/maxwin/BulkDock/SCRATCH/511018/C6549-P52

>  <fragmenstein_runtime>  (1201) 
21.501233339309692

>  <fragmenstein_outcome>  (1201) 
too moved

>  <fragmenstein_mode>  (1201) 
expansion

>  <fragmenstein_error>  (1201) 


$$$$
C6549-P187
     RDKit          3D

 42 44  0  0  0  0  0  0  0  0999 V2000
   -0.3681   -8.0886   31.3048 C   0  0  0  0  0  0  0  0  0  0  0  0
   -1.4756   -7.1254   30.9159 C   0  0  0  0  0  0  0  0  0  0  0  0
   -2.8118   -7.7459   31.2820 N   0  0  0  0  0  0  0  0  0  0  0  0
   -3.1867   -8.5458   32.3693 C   0  0  0  0  0  0  0  0  0  0  0  0
   -2.5682   -8.8592   33.3039 O   0  0  0  0  0  0  0  0  0  0  0  0
   -4.8925   -9.2335   32.0347 N   0  0  0  0  0  0  0  0  0  0  0  0
   -5.9331  -10.7204   33.0193 C   0  0  0  0  0  0  0  0  0  0  0  0
   -7.4802  -12.1697   32.9451 C   0  0  0  0  0  0  0  0  0  0  0  0
   -8.5766  -13.9615   32.7722 C   0  0  0  0  0  0  0  0  0  0  0  0
   -9.9291  -15.1679   33.3199 N   0  0  0  0  0  0  0  0  0  0  0  0
  -11.3194  -15.2852   32.9221 C   0  0  0  0  0  0  0  0  0  0  0  0
  -12.1624  -15.5397   33.8941 N   0  0  0  0  0  0  0  0  0  0  0  0
  -11.5201  -16.5639   34.4768 C   0  0  0  0  0  0  0  0  0  0  0  0
  -12.1066  -17.5876   35.2648 C   0  0  0  0  0  0  0  0  0  0  0  0
  -11.3402  -18.6377   35.7434 C   0  0  0  0  0  0  0  0  0  0  0  0
   -9.9770  -18.5452   35.6125 C   0  0  0  0  0  0  0  0  0  0  0  0
   -9.4001  -17.4732   34.9035 C   0  0  0  0  0  0  0  0  0  0  0  0
  -10.1244  -16.5677   34.0752 C   0  0  0  0  0  0  0  0  0  0  0  0
   -1.0435   -5.7365   31.3832 C   0  0  0  0  0  0  0  0  0  0  0  0
   -0.5971   -4.6695   30.5998 C   0  0  0  0  0  0  0  0  0  0  0  0
   -0.2553   -3.5453   31.3933 C   0  0  0  0  0  0  0  0  0  0  0  0
   -0.3287   -3.7145   32.7057 N   0  0  0  0  0  0  0  0  0  0  0  0
   -0.8169   -5.2734   33.0154 S   0  0  0  0  0  0  0  0  0  0  0  0
    0.5836   -7.7583   30.8816 H   0  0  0  0  0  0  0  0  0  0  0  0
   -0.5907   -9.0847   30.9106 H   0  0  0  0  0  0  0  0  0  0  0  0
   -0.2475   -8.1750   32.3893 H   0  0  0  0  0  0  0  0  0  0  0  0
   -1.4420   -7.1635   29.8202 H   0  0  0  0  0  0  0  0  0  0  0  0
   -3.5568   -7.7468   30.6116 H   0  0  0  0  0  0  0  0  0  0  0  0
   -5.2850   -8.7682   31.2212 H   0  0  0  0  0  0  0  0  0  0  0  0
   -5.2285  -11.4471   33.1573 H   0  0  0  0  0  0  0  0  0  0  0  0
   -5.7370  -10.4541   34.0668 H   0  0  0  0  0  0  0  0  0  0  0  0
   -7.8178  -11.9919   33.9625 H   0  0  0  0  0  0  0  0  0  0  0  0
   -8.1999  -11.6116   32.3567 H   0  0  0  0  0  0  0  0  0  0  0  0
   -8.3635  -14.6012   31.8957 H   0  0  0  0  0  0  0  0  0  0  0  0
   -9.4172  -13.3176   32.7290 H   0  0  0  0  0  0  0  0  0  0  0  0
  -11.6972  -15.2996   31.9030 H   0  0  0  0  0  0  0  0  0  0  0  0
  -13.1781  -17.5664   35.4293 H   0  0  0  0  0  0  0  0  0  0  0  0
  -11.7957  -19.4413   36.3123 H   0  0  0  0  0  0  0  0  0  0  0  0
   -9.3475  -19.2070   36.1990 H   0  0  0  0  0  0  0  0  0  0  0  0
   -8.4837  -17.1341   35.3558 H   0  0  0  0  0  0  0  0  0  0  0  0
   -0.5523   -4.6767   29.5176 H   0  0  0  0  0  0  0  0  0  0  0  0
    0.0718   -2.5792   31.0298 H   0  0  0  0  0  0  0  0  0  0  0  0
  1  2  1  0
  2  3  1  0
  3  4  1  0
  4  5  2  0
  4  6  1  0
  6  7  1  0
  7  8  1  0
  8  9  1  0
  9 10  1  0
 10 11  1  0
 11 12  2  0
 12 13  1  0
 13 14  2  0
 14 15  1  0
 15 16  2  0
 16 17  1  0
 17 18  2  0
  2 19  1  0
 19 20  2  0
 20 21  1  0
 21 22  2  0
 22 23  1  0
 18 10  1  0
 23 19  1  0
 18 13  1  0
  1 24  1  0
  1 25  1  0
  1 26  1  0
  2 27  1  0
  3 28  1  0
  6 29  1  0
  7 30  1  0
  7 31  1  0
  8 32  1  0
  8 33  1  0
  9 34  1  0
  9 35  1  0
 11 36  1  0
 14 37  1  0
 15 38  1  0
 16 39  1  0
 17 40  1  0
 20 41  1  0
 21 42  1  0
M  END
>  <Energy>  (1202) 
560.6284102663052

>  <compound_id>  (1202) 
6549

>  <target_id>  (1202) 
1

>  <reference_id>  (1202) 
187

>  <inspiration_ids>  (1202) 
[52, 187]

>  <energy_score>  (1202) 
608.1040876672298

>  <distance_score>  (1202) 
6.025136062009655

>  <path>  (1202) 
/opt/xchem-fragalysis-2/maxwin/BulkDock/SCRATCH/511018/C6549-P187/C6549-P187.minimised.mol

>  <scratch_subdir>  (1202) 
/opt/xchem-fragalysis-2/maxwin/BulkDock/SCRATCH/511018/C6549-P187

>  <fragmenstein_runtime>  (1202) 
23.43714141845703

>  <fragmenstein_outcome>  (1202) 
too moved

>  <fragmenstein_mode>  (1202) 
expansion

>  <fragmenstein_error>  (1202) 


$$$$
C6564-P52
     RDKit          3D

 38 40  0  0  0  0  0  0  0  0999 V2000
   -6.0186  -13.2854   29.8355 O   0  0  0  0  0  0  0  0  0  0  0  0
   -6.3704  -12.6750   28.9024 C   0  0  0  0  0  0  0  0  0  0  0  0
   -5.3765  -10.8130   28.8532 C   0  0  0  0  0  0  0  0  0  0  0  0
   -3.9425   -9.5456   29.4541 N   0  0  0  0  0  0  0  0  0  0  0  0
   -2.4813   -8.8410   29.1144 C   0  0  0  0  0  0  0  0  0  0  0  0
   -1.3415   -7.9826   27.7268 S   0  0  0  0  0  0  0  0  0  0  0  0
   -1.4327   -6.1436   27.9886 C   0  0  0  0  0  0  0  0  0  0  0  0
   -0.8626   -5.6924   29.1313 F   0  0  0  0  0  0  0  0  0  0  0  0
   -0.8949   -5.4910   26.9145 F   0  0  0  0  0  0  0  0  0  0  0  0
   -2.1358   -8.0523   30.0995 N   0  0  0  0  0  0  0  0  0  0  0  0
   -2.8966   -7.9646   31.1825 C   0  0  0  0  0  0  0  0  0  0  0  0
   -2.7363   -7.1416   32.3012 C   0  0  0  0  0  0  0  0  0  0  0  0
   -2.6515   -5.8485   31.9146 C   0  0  0  0  0  0  0  0  0  0  0  0
   -3.2890   -5.6435   30.7373 C   0  0  0  0  0  0  0  0  0  0  0  0
   -4.2096   -6.6746   30.2544 C   0  0  0  0  0  0  0  0  0  0  0  0
   -4.1184   -8.0876   30.5138 C   0  0  0  0  0  0  0  0  0  0  0  0
   -7.5240  -13.5911   27.7140 N   0  0  0  0  0  0  0  0  0  0  0  0
   -8.1826  -15.5406   27.6560 C   0  0  0  0  0  0  0  0  0  0  0  0
   -8.8056  -17.5724   28.0396 C   0  0  0  0  0  0  0  0  0  0  0  0
   -9.8117  -19.2497   29.0454 C   0  0  0  0  0  0  0  0  0  0  0  0
  -11.1788  -19.6967   29.5772 C   0  0  0  0  0  0  0  0  0  0  0  0
  -11.3346  -20.8890   30.3036 C   0  0  0  0  0  0  0  0  0  0  0  0
  -10.7637  -21.8730   29.6584 N   0  0  0  0  0  0  0  0  0  0  0  0
  -10.0341  -21.2031   28.3297 S   0  0  0  0  0  0  0  0  0  0  0  0
   -5.7056  -10.5395   29.8576 H   0  0  0  0  0  0  0  0  0  0  0  0
   -4.4190  -11.3188   28.7465 H   0  0  0  0  0  0  0  0  0  0  0  0
   -2.4345   -5.7288   27.9967 H   0  0  0  0  0  0  0  0  0  0  0  0
   -2.3432   -7.5533   33.2088 H   0  0  0  0  0  0  0  0  0  0  0  0
   -2.1465   -5.0694   32.4648 H   0  0  0  0  0  0  0  0  0  0  0  0
   -3.1472   -4.7002   30.2280 H   0  0  0  0  0  0  0  0  0  0  0  0
   -4.6541   -6.4384   29.3501 H   0  0  0  0  0  0  0  0  0  0  0  0
   -7.8283  -12.9348   26.9943 H   0  0  0  0  0  0  0  0  0  0  0  0
   -8.6040  -15.4394   26.6412 H   0  0  0  0  0  0  0  0  0  0  0  0
   -7.1802  -15.8888   27.6457 H   0  0  0  0  0  0  0  0  0  0  0  0
   -7.9434  -18.1338   27.9629 H   0  0  0  0  0  0  0  0  0  0  0  0
   -9.3672  -17.3849   27.1621 H   0  0  0  0  0  0  0  0  0  0  0  0
  -12.0896  -19.1915   29.2928 H   0  0  0  0  0  0  0  0  0  0  0  0
  -12.0938  -21.1534   31.0285 H   0  0  0  0  0  0  0  0  0  0  0  0
  1  2  2  0
  2  3  1  0
  3  4  1  0
  4  5  1  0
  5  6  1  0
  6  7  1  0
  7  8  1  0
  7  9  1  0
  5 10  2  0
 10 11  1  0
 11 12  2  0
 12 13  1  0
 13 14  2  0
 14 15  1  0
 15 16  2  0
  2 17  1  0
 17 18  1  0
 18 19  1  0
 19 20  1  0
 20 21  2  0
 21 22  1  0
 22 23  2  0
 23 24  1  0
 16  4  1  0
 24 20  1  0
 16 11  1  0
  3 25  1  0
  3 26  1  0
  7 27  1  0
 12 28  1  0
 13 29  1  0
 14 30  1  0
 15 31  1  0
 17 32  1  0
 18 33  1  0
 18 34  1  0
 19 35  1  0
 19 36  1  0
 21 37  1  0
 22 38  1  0
M  END
>  <Energy>  (1203) 
1210.6998681260759

>  <compound_id>  (1203) 
6564

>  <target_id>  (1203) 
1

>  <reference_id>  (1203) 
52

>  <inspiration_ids>  (1203) 
[52, 187]

>  <energy_score>  (1203) 
1167.809446947359

>  <distance_score>  (1203) 
4.495744326110558

>  <path>  (1203) 
/opt/xchem-fragalysis-2/maxwin/BulkDock/SCRATCH/511018/C6564-P52/C6564-P52.minimised.mol

>  <scratch_subdir>  (1203) 
/opt/xchem-fragalysis-2/maxwin/BulkDock/SCRATCH/511018/C6564-P52

>  <fragmenstein_runtime>  (1203) 
17.996594667434692

>  <fragmenstein_outcome>  (1203) 
too moved

>  <fragmenstein_mode>  (1203) 
expansion

>  <fragmenstein_error>  (1203) 


$$$$
C6564-P187
     RDKit          3D

 38 40  0  0  0  0  0  0  0  0999 V2000
   -3.5798  -14.5368   30.0051 O   0  0  0  0  0  0  0  0  0  0  0  0
   -2.6115  -14.1164   30.4428 C   0  0  0  0  0  0  0  0  0  0  0  0
   -2.3224  -12.1612   29.7771 C   0  0  0  0  0  0  0  0  0  0  0  0
   -1.4743  -10.5182   30.4252 N   0  0  0  0  0  0  0  0  0  0  0  0
   -0.4365   -9.5656   30.1934 C   0  0  0  0  0  0  0  0  0  0  0  0
    0.3580   -8.7511   28.9387 S   0  0  0  0  0  0  0  0  0  0  0  0
    0.7125   -7.0350   29.7425 C   0  0  0  0  0  0  0  0  0  0  0  0
    1.1433   -6.9795   31.0256 F   0  0  0  0  0  0  0  0  0  0  0  0
    1.7283   -6.4748   29.0145 F   0  0  0  0  0  0  0  0  0  0  0  0
   -0.0670   -8.9706   31.3239 N   0  0  0  0  0  0  0  0  0  0  0  0
   -0.9537   -9.0811   32.3287 C   0  0  0  0  0  0  0  0  0  0  0  0
   -0.9287   -8.2044   33.4639 C   0  0  0  0  0  0  0  0  0  0  0  0
   -1.1126   -6.8892   33.1924 C   0  0  0  0  0  0  0  0  0  0  0  0
   -1.6286   -6.6772   31.9615 C   0  0  0  0  0  0  0  0  0  0  0  0
   -2.2004   -7.7741   31.1978 C   0  0  0  0  0  0  0  0  0  0  0  0
   -2.0309   -9.2468   31.4830 C   0  0  0  0  0  0  0  0  0  0  0  0
   -1.6266  -14.9503   31.2852 N   0  0  0  0  0  0  0  0  0  0  0  0
   -1.5992  -16.3608   31.6211 C   0  0  0  0  0  0  0  0  0  0  0  0
   -0.7632  -17.2117   30.6110 C   0  0  0  0  0  0  0  0  0  0  0  0
   -0.6723  -18.6886   30.9326 C   0  0  0  0  0  0  0  0  0  0  0  0
   -0.9772  -19.4067   32.0771 C   0  0  0  0  0  0  0  0  0  0  0  0
   -1.0084  -20.8054   31.8029 C   0  0  0  0  0  0  0  0  0  0  0  0
   -0.6403  -21.1862   30.5851 N   0  0  0  0  0  0  0  0  0  0  0  0
   -0.1782  -19.8329   29.7324 S   0  0  0  0  0  0  0  0  0  0  0  0
   -2.1317  -12.0356   28.7330 H   0  0  0  0  0  0  0  0  0  0  0  0
   -3.3427  -11.7710   29.6896 H   0  0  0  0  0  0  0  0  0  0  0  0
   -0.1638   -6.3916   29.6571 H   0  0  0  0  0  0  0  0  0  0  0  0
   -0.4293   -8.4537   34.3917 H   0  0  0  0  0  0  0  0  0  0  0  0
   -0.8196   -6.0966   33.8664 H   0  0  0  0  0  0  0  0  0  0  0  0
   -1.5903   -5.6652   31.5736 H   0  0  0  0  0  0  0  0  0  0  0  0
   -2.4062   -7.4645   30.1830 H   0  0  0  0  0  0  0  0  0  0  0  0
   -0.9202  -14.3509   31.6166 H   0  0  0  0  0  0  0  0  0  0  0  0
   -1.0976  -16.4472   32.5868 H   0  0  0  0  0  0  0  0  0  0  0  0
   -2.6228  -16.7225   31.5669 H   0  0  0  0  0  0  0  0  0  0  0  0
    0.2636  -16.8276   30.5955 H   0  0  0  0  0  0  0  0  0  0  0  0
   -1.1492  -17.0545   29.5973 H   0  0  0  0  0  0  0  0  0  0  0  0
   -1.2575  -18.9653   33.0201 H   0  0  0  0  0  0  0  0  0  0  0  0
   -1.2957  -21.5825   32.4995 H   0  0  0  0  0  0  0  0  0  0  0  0
  1  2  2  0
  2  3  1  0
  3  4  1  0
  4  5  1  0
  5  6  1  0
  6  7  1  0
  7  8  1  0
  7  9  1  0
  5 10  2  0
 10 11  1  0
 11 12  2  0
 12 13  1  0
 13 14  2  0
 14 15  1  0
 15 16  2  0
  2 17  1  0
 17 18  1  0
 18 19  1  0
 19 20  1  0
 20 21  2  0
 21 22  1  0
 22 23  2  0
 23 24  1  0
 16  4  1  0
 24 20  1  0
 16 11  1  0
  3 25  1  0
  3 26  1  0
  7 27  1  0
 12 28  1  0
 13 29  1  0
 14 30  1  0
 15 31  1  0
 17 32  1  0
 18 33  1  0
 18 34  1  0
 19 35  1  0
 19 36  1  0
 21 37  1  0
 22 38  1  0
M  END
>  <Energy>  (1204) 
445.24078868889484

>  <compound_id>  (1204) 
6564

>  <target_id>  (1204) 
1

>  <reference_id>  (1204) 
187

>  <inspiration_ids>  (1204) 
[52, 187]

>  <energy_score>  (1204) 
402.3503675101734

>  <distance_score>  (1204) 
8.731117231310678

>  <path>  (1204) 
/opt/xchem-fragalysis-2/maxwin/BulkDock/SCRATCH/511018/C6564-P187/C6564-P187.minimised.mol

>  <scratch_subdir>  (1204) 
/opt/xchem-fragalysis-2/maxwin/BulkDock/SCRATCH/511018/C6564-P187

>  <fragmenstein_runtime>  (1204) 
23.262802839279175

>  <fragmenstein_outcome>  (1204) 
too moved

>  <fragmenstein_mode>  (1204) 
expansion

>  <fragmenstein_error>  (1204) 


$$$$
C6587-P127
     RDKit          3D

 39 42  0  0  0  0  0  0  0  0999 V2000
    1.5728   -1.1171   10.5061 O   0  0  0  0  0  0  0  0  0  0  0  0
    1.4436   -2.0143    9.7664 C   0  0  0  0  0  0  0  0  0  0  0  0
    0.4345   -2.3322    8.9191 N   0  0  0  0  0  0  0  0  0  0  0  0
   -1.3439   -1.5347    8.6400 C   0  0  0  0  0  0  0  0  0  0  0  0
   -2.6256   -2.3336    8.3663 C   0  0  0  0  0  0  0  0  0  0  0  0
   -3.1868   -2.1130    7.0915 C   0  0  0  0  0  0  0  0  0  0  0  0
   -2.5670   -1.0507    6.6197 N   0  0  0  0  0  0  0  0  0  0  0  0
   -2.2756   -0.4898    7.8150 N   0  0  0  0  0  0  0  0  0  0  0  0
   -3.5531    0.1937    8.3479 C   0  0  0  0  0  0  0  0  0  0  0  0
   -5.0025   -0.4090    8.1794 C   0  0  0  0  0  0  0  0  0  0  0  0
   -5.5847    0.0938    6.8669 C   0  0  0  0  0  0  0  0  0  0  0  0
   -4.6573    1.2057    6.4248 C   0  0  0  0  0  0  0  0  0  0  0  0
   -3.7706    1.5176    7.6299 C   0  0  0  0  0  0  0  0  0  0  0  0
    2.5100   -3.2952    9.6606 C   0  0  0  0  0  0  0  0  0  0  0  0
    3.1218   -3.7667   10.7440 N   0  0  0  0  0  0  0  0  0  0  0  0
    3.6955   -4.9568   10.4194 C   0  0  0  0  0  0  0  0  0  0  0  0
    4.3034   -5.9118   11.2358 C   0  0  0  0  0  0  0  0  0  0  0  0
    5.0284   -6.9431   10.6328 C   0  0  0  0  0  0  0  0  0  0  0  0
    5.1299   -7.0107    9.2445 C   0  0  0  0  0  0  0  0  0  0  0  0
    4.4402   -6.1106    8.4160 C   0  0  0  0  0  0  0  0  0  0  0  0
    3.6967   -5.1102    9.0459 C   0  0  0  0  0  0  0  0  0  0  0  0
    2.8574   -4.1083    8.5936 N   0  0  0  0  0  0  0  0  0  0  0  0
    0.6469   -3.2680    8.4817 H   0  0  0  0  0  0  0  0  0  0  0  0
   -2.8958   -3.2786    8.7687 H   0  0  0  0  0  0  0  0  0  0  0  0
   -3.9017   -2.6910    6.5168 H   0  0  0  0  0  0  0  0  0  0  0  0
   -3.3813    0.2200    9.3987 H   0  0  0  0  0  0  0  0  0  0  0  0
   -5.1162   -1.4840    8.2839 H   0  0  0  0  0  0  0  0  0  0  0  0
   -5.6435   -0.0095    8.9667 H   0  0  0  0  0  0  0  0  0  0  0  0
   -5.6315   -0.6981    6.1121 H   0  0  0  0  0  0  0  0  0  0  0  0
   -6.6058    0.4624    7.0140 H   0  0  0  0  0  0  0  0  0  0  0  0
   -5.2094    2.0887    6.0875 H   0  0  0  0  0  0  0  0  0  0  0  0
   -4.0712    0.8437    5.5761 H   0  0  0  0  0  0  0  0  0  0  0  0
   -2.8367    1.9866    7.3957 H   0  0  0  0  0  0  0  0  0  0  0  0
   -4.2814    2.2694    8.2201 H   0  0  0  0  0  0  0  0  0  0  0  0
    4.2291   -5.8177   12.3091 H   0  0  0  0  0  0  0  0  0  0  0  0
    5.5383   -7.6789   11.2498 H   0  0  0  0  0  0  0  0  0  0  0  0
    5.7215   -7.8048    8.7918 H   0  0  0  0  0  0  0  0  0  0  0  0
    4.4765   -6.2086    7.3363 H   0  0  0  0  0  0  0  0  0  0  0  0
    2.5956   -3.9594    7.6316 H   0  0  0  0  0  0  0  0  0  0  0  0
  1  2  2  0
  2  3  1  0
  3  4  1  0
  4  5  2  0
  5  6  1  0
  6  7  2  0
  7  8  1  0
  8  9  1  0
  9 10  1  0
 10 11  1  0
 11 12  1  0
 12 13  1  0
  2 14  1  0
 14 15  2  0
 15 16  1  0
 16 17  2  0
 17 18  1  0
 18 19  2  0
 19 20  1  0
 20 21  2  0
 21 22  1  0
  8  4  1  0
 13  9  1  0
 22 14  1  0
 21 16  1  0
  3 23  1  0
  5 24  1  0
  6 25  1  0
  9 26  1  0
 10 27  1  0
 10 28  1  0
 11 29  1  0
 11 30  1  0
 12 31  1  0
 12 32  1  0
 13 33  1  0
 13 34  1  0
 17 35  1  0
 18 36  1  0
 19 37  1  0
 20 38  1  0
 22 39  1  0
M  END
>  <Energy>  (1205) 
348.81160008018753

>  <compound_id>  (1205) 
6587

>  <target_id>  (1205) 
1

>  <reference_id>  (1205) 
127

>  <inspiration_ids>  (1205) 
[127, 103]

>  <energy_score>  (1205) 
261.8959878279129

>  <distance_score>  (1205) 
9.766148004573521

>  <path>  (1205) 
/opt/xchem-fragalysis-2/maxwin/BulkDock/SCRATCH/511018/C6587-P127/C6587-P127.minimised.mol

>  <scratch_subdir>  (1205) 
/opt/xchem-fragalysis-2/maxwin/BulkDock/SCRATCH/511018/C6587-P127

>  <fragmenstein_runtime>  (1205) 
10.782464265823364

>  <fragmenstein_outcome>  (1205) 
too moved

>  <fragmenstein_mode>  (1205) 
expansion

>  <fragmenstein_error>  (1205) 


$$$$
C6587-P103
     RDKit          3D

 39 42  0  0  0  0  0  0  0  0999 V2000
    3.3674    6.0989   12.3904 O   0  0  0  0  0  0  0  0  0  0  0  0
    3.5104    5.3657   13.3282 C   0  0  0  0  0  0  0  0  0  0  0  0
    2.5874    4.4574   13.9618 N   0  0  0  0  0  0  0  0  0  0  0  0
    1.2234    4.2225   13.7355 C   0  0  0  0  0  0  0  0  0  0  0  0
    0.5055    3.3450   14.5398 C   0  0  0  0  0  0  0  0  0  0  0  0
   -0.8277    3.4120   14.1382 C   0  0  0  0  0  0  0  0  0  0  0  0
   -0.9883    4.2251   13.1082 N   0  0  0  0  0  0  0  0  0  0  0  0
    0.2705    4.6842   12.8095 N   0  0  0  0  0  0  0  0  0  0  0  0
    0.3860    5.5895   11.6706 C   0  0  0  0  0  0  0  0  0  0  0  0
   -0.9400    6.2189   11.1384 C   0  0  0  0  0  0  0  0  0  0  0  0
   -0.8787    6.1935    9.6082 C   0  0  0  0  0  0  0  0  0  0  0  0
    0.5666    5.8813    9.2744 C   0  0  0  0  0  0  0  0  0  0  0  0
    1.0244    4.9874   10.4141 C   0  0  0  0  0  0  0  0  0  0  0  0
    4.8645    5.2963   13.9731 C   0  0  0  0  0  0  0  0  0  0  0  0
    5.1472    4.8727   15.2025 N   0  0  0  0  0  0  0  0  0  0  0  0
    6.5273    4.7702   15.2713 C   0  0  0  0  0  0  0  0  0  0  0  0
    7.3529    4.2376   16.2786 C   0  0  0  0  0  0  0  0  0  0  0  0
    8.7283    4.1005   16.0375 C   0  0  0  0  0  0  0  0  0  0  0  0
    9.2867    4.5352   14.8358 C   0  0  0  0  0  0  0  0  0  0  0  0
    8.4929    5.1266   13.8431 C   0  0  0  0  0  0  0  0  0  0  0  0
    7.1150    5.2163   14.0931 C   0  0  0  0  0  0  0  0  0  0  0  0
    6.0452    5.6495   13.3391 N   0  0  0  0  0  0  0  0  0  0  0  0
    3.0831    3.9298   14.6867 H   0  0  0  0  0  0  0  0  0  0  0  0
    0.9101    2.7666   15.3591 H   0  0  0  0  0  0  0  0  0  0  0  0
   -1.6850    2.9106   14.5630 H   0  0  0  0  0  0  0  0  0  0  0  0
    0.9979    6.4251   12.0286 H   0  0  0  0  0  0  0  0  0  0  0  0
   -1.8598    5.7364   11.4794 H   0  0  0  0  0  0  0  0  0  0  0  0
   -0.9988    7.2579   11.4867 H   0  0  0  0  0  0  0  0  0  0  0  0
   -1.5419    5.4241    9.2024 H   0  0  0  0  0  0  0  0  0  0  0  0
   -1.1968    7.1476    9.1756 H   0  0  0  0  0  0  0  0  0  0  0  0
    1.1577    6.8048    9.2639 H   0  0  0  0  0  0  0  0  0  0  0  0
    0.6728    5.3998    8.2979 H   0  0  0  0  0  0  0  0  0  0  0  0
    2.1144    4.9363   10.4778 H   0  0  0  0  0  0  0  0  0  0  0  0
    0.6693    3.9837   10.2160 H   0  0  0  0  0  0  0  0  0  0  0  0
    6.9152    3.9252   17.2171 H   0  0  0  0  0  0  0  0  0  0  0  0
    9.3741    3.6725   16.7989 H   0  0  0  0  0  0  0  0  0  0  0  0
   10.3599    4.4400   14.6797 H   0  0  0  0  0  0  0  0  0  0  0  0
    8.9282    5.4833   12.9153 H   0  0  0  0  0  0  0  0  0  0  0  0
    6.0749    6.0356   12.4073 H   0  0  0  0  0  0  0  0  0  0  0  0
  1  2  2  0
  2  3  1  0
  3  4  1  0
  4  5  2  0
  5  6  1  0
  6  7  2  0
  7  8  1  0
  8  9  1  0
  9 10  1  0
 10 11  1  0
 11 12  1  0
 12 13  1  0
  2 14  1  0
 14 15  2  0
 15 16  1  0
 16 17  2  0
 17 18  1  0
 18 19  2  0
 19 20  1  0
 20 21  2  0
 21 22  1  0
  8  4  1  0
 13  9  1  0
 22 14  1  0
 21 16  1  0
  3 23  1  0
  5 24  1  0
  6 25  1  0
  9 26  1  0
 10 27  1  0
 10 28  1  0
 11 29  1  0
 11 30  1  0
 12 31  1  0
 12 32  1  0
 13 33  1  0
 13 34  1  0
 17 35  1  0
 18 36  1  0
 19 37  1  0
 20 38  1  0
 22 39  1  0
M  END
>  <Energy>  (1206) 
59.157135385277776

>  <compound_id>  (1206) 
6587

>  <target_id>  (1206) 
1

>  <reference_id>  (1206) 
103

>  <inspiration_ids>  (1206) 
[127, 103]

>  <energy_score>  (1206) 
-27.758476866996602

>  <distance_score>  (1206) 
10.46888110969886

>  <path>  (1206) 
/opt/xchem-fragalysis-2/maxwin/BulkDock/SCRATCH/511018/C6587-P103/C6587-P103.minimised.mol

>  <scratch_subdir>  (1206) 
/opt/xchem-fragalysis-2/maxwin/BulkDock/SCRATCH/511018/C6587-P103

>  <fragmenstein_runtime>  (1206) 
15.575218439102173

>  <fragmenstein_outcome>  (1206) 
too moved

>  <fragmenstein_mode>  (1206) 
expansion

>  <fragmenstein_error>  (1206) 


$$$$
C6590-P127
     RDKit          3D

 43 46  0  0  0  0  0  0  0  0999 V2000
    3.9399    5.1616   15.0411 O   0  0  0  0  0  0  0  0  0  0  0  0
    4.0703    4.9878   13.8571 C   0  0  0  0  0  0  0  0  0  0  0  0
    5.5405    4.8851   13.2779 C   0  0  0  0  0  0  0  0  0  0  0  0
    6.8180    5.5982   14.4477 S   0  0  0  0  0  0  0  0  0  0  0  0
    8.1923    4.5396   14.5400 C   0  0  0  0  0  0  0  0  0  0  0  0
    9.0652    4.2162   13.6089 N   0  0  0  0  0  0  0  0  0  0  0  0
    9.9858    3.3925   14.2393 C   0  0  0  0  0  0  0  0  0  0  0  0
   11.0976    2.7087   13.7150 C   0  0  0  0  0  0  0  0  0  0  0  0
   11.7945    1.8080   14.5348 C   0  0  0  0  0  0  0  0  0  0  0  0
   11.4097    1.6056   15.8604 C   0  0  0  0  0  0  0  0  0  0  0  0
   10.3248    2.3001   16.4096 C   0  0  0  0  0  0  0  0  0  0  0  0
    9.6381    3.1859   15.5710 C   0  0  0  0  0  0  0  0  0  0  0  0
    8.5286    3.9816   15.7509 N   0  0  0  0  0  0  0  0  0  0  0  0
    3.0546    4.8039   12.7906 N   0  0  0  0  0  0  0  0  0  0  0  0
    1.6637    4.6875   12.8653 C   0  0  0  0  0  0  0  0  0  0  0  0
    0.9334    4.6170   14.0417 C   0  0  0  0  0  0  0  0  0  0  0  0
   -0.3990    4.3954   13.6839 C   0  0  0  0  0  0  0  0  0  0  0  0
   -0.5585    4.3666   12.3710 N   0  0  0  0  0  0  0  0  0  0  0  0
    0.6924    4.5889   11.8650 N   0  0  0  0  0  0  0  0  0  0  0  0
    0.7244    4.6647   10.4247 C   0  0  0  0  0  0  0  0  0  0  0  0
    0.0545    5.8969    9.8207 C   0  0  0  0  0  0  0  0  0  0  0  0
    0.3894    5.7979    8.3327 C   0  0  0  0  0  0  0  0  0  0  0  0
    1.5796    4.8388    8.2250 C   0  0  0  0  0  0  0  0  0  0  0  0
    2.0325    4.5792    9.6616 C   0  0  0  0  0  0  0  0  0  0  0  0
    5.7412    3.8406   13.0485 H   0  0  0  0  0  0  0  0  0  0  0  0
    5.5937    5.4673   12.3529 H   0  0  0  0  0  0  0  0  0  0  0  0
   11.3920    2.8565   12.6812 H   0  0  0  0  0  0  0  0  0  0  0  0
   12.6441    1.2636   14.1275 H   0  0  0  0  0  0  0  0  0  0  0  0
   11.9683    0.9050   16.4773 H   0  0  0  0  0  0  0  0  0  0  0  0
   10.0170    2.1401   17.4334 H   0  0  0  0  0  0  0  0  0  0  0  0
    7.9842    4.0894   16.5944 H   0  0  0  0  0  0  0  0  0  0  0  0
    3.5236    4.6002   11.9170 H   0  0  0  0  0  0  0  0  0  0  0  0
    1.3396    4.6692   15.0431 H   0  0  0  0  0  0  0  0  0  0  0  0
   -1.2533    4.2564   14.3258 H   0  0  0  0  0  0  0  0  0  0  0  0
    0.1369    3.8198   10.0801 H   0  0  0  0  0  0  0  0  0  0  0  0
   -1.0266    5.9242    9.9911 H   0  0  0  0  0  0  0  0  0  0  0  0
    0.4797    6.8146   10.2457 H   0  0  0  0  0  0  0  0  0  0  0  0
   -0.4648    5.4183    7.7650 H   0  0  0  0  0  0  0  0  0  0  0  0
    0.6361    6.7851    7.9279 H   0  0  0  0  0  0  0  0  0  0  0  0
    2.3870    5.2538    7.6140 H   0  0  0  0  0  0  0  0  0  0  0  0
    1.2616    3.9027    7.7589 H   0  0  0  0  0  0  0  0  0  0  0  0
    2.7297    5.3634    9.9781 H   0  0  0  0  0  0  0  0  0  0  0  0
    2.5315    3.6114    9.7673 H   0  0  0  0  0  0  0  0  0  0  0  0
  1  2  2  0
  2  3  1  0
  3  4  1  0
  4  5  1  0
  5  6  2  0
  6  7  1  0
  7  8  2  0
  8  9  1  0
  9 10  2  0
 10 11  1  0
 11 12  2  0
 12 13  1  0
  2 14  1  0
 14 15  1  0
 15 16  2  0
 16 17  1  0
 17 18  2  0
 18 19  1  0
 19 20  1  0
 20 21  1  0
 21 22  1  0
 22 23  1  0
 23 24  1  0
 13  5  1  0
 19 15  1  0
 24 20  1  0
 12  7  1  0
  3 25  1  0
  3 26  1  0
  8 27  1  0
  9 28  1  0
 10 29  1  0
 11 30  1  0
 13 31  1  0
 14 32  1  0
 16 33  1  0
 17 34  1  0
 20 35  1  0
 21 36  1  0
 21 37  1  0
 22 38  1  0
 22 39  1  0
 23 40  1  0
 23 41  1  0
 24 42  1  0
 24 43  1  0
M  END
>  <Energy>  (1207) 
63.985324426120798

>  <compound_id>  (1207) 
6590

>  <target_id>  (1207) 
1

>  <reference_id>  (1207) 
127

>  <inspiration_ids>  (1207) 
[127, 103]

>  <energy_score>  (1207) 
-24.513854336438783

>  <distance_score>  (1207) 
9.39721336784675

>  <path>  (1207) 
/opt/xchem-fragalysis-2/maxwin/BulkDock/SCRATCH/511018/C6590-P127/C6590-P127.minimised.mol

>  <scratch_subdir>  (1207) 
/opt/xchem-fragalysis-2/maxwin/BulkDock/SCRATCH/511018/C6590-P127

>  <fragmenstein_runtime>  (1207) 
16.31746554374695

>  <fragmenstein_outcome>  (1207) 
too moved

>  <fragmenstein_mode>  (1207) 
expansion

>  <fragmenstein_error>  (1207) 


$$$$
C6590-P103
     RDKit          3D

 43 46  0  0  0  0  0  0  0  0999 V2000
    0.1649    3.9962    8.3928 O   0  0  0  0  0  0  0  0  0  0  0  0
    0.0258    4.8945    9.1830 C   0  0  0  0  0  0  0  0  0  0  0  0
    1.2717    5.3485   10.1303 C   0  0  0  0  0  0  0  0  0  0  0  0
    2.8687    4.4344    9.7942 S   0  0  0  0  0  0  0  0  0  0  0  0
    4.0711    4.7995   11.0099 C   0  0  0  0  0  0  0  0  0  0  0  0
    3.9498    5.1051   12.2812 N   0  0  0  0  0  0  0  0  0  0  0  0
    5.2510    5.1584   12.7727 C   0  0  0  0  0  0  0  0  0  0  0  0
    5.7328    5.3853   14.0763 C   0  0  0  0  0  0  0  0  0  0  0  0
    7.1214    5.4052   14.3095 C   0  0  0  0  0  0  0  0  0  0  0  0
    8.0265    5.2299   13.2607 C   0  0  0  0  0  0  0  0  0  0  0  0
    7.5712    5.0123   11.9541 C   0  0  0  0  0  0  0  0  0  0  0  0
    6.1811    4.9500   11.7585 C   0  0  0  0  0  0  0  0  0  0  0  0
    5.3979    4.6681   10.6642 N   0  0  0  0  0  0  0  0  0  0  0  0
   -1.1811    5.6733    9.5579 N   0  0  0  0  0  0  0  0  0  0  0  0
   -2.5497    5.5290    9.1674 C   0  0  0  0  0  0  0  0  0  0  0  0
   -3.3807    6.6443    9.1718 C   0  0  0  0  0  0  0  0  0  0  0  0
   -4.6385    6.2125    9.5938 C   0  0  0  0  0  0  0  0  0  0  0  0
   -4.6558    4.9124    9.8382 N   0  0  0  0  0  0  0  0  0  0  0  0
   -3.4981    4.4219    9.2949 N   0  0  0  0  0  0  0  0  0  0  0  0
   -3.7220    3.2104    8.4688 C   0  0  0  0  0  0  0  0  0  0  0  0
   -3.5961    1.4312    8.7385 C   0  0  0  0  0  0  0  0  0  0  0  0
   -4.9020    0.7527    8.0725 C   0  0  0  0  0  0  0  0  0  0  0  0
   -5.7991    1.8785    7.5235 C   0  0  0  0  0  0  0  0  0  0  0  0
   -5.1412    3.2819    7.6870 C   0  0  0  0  0  0  0  0  0  0  0  0
    1.4467    6.4169    9.9740 H   0  0  0  0  0  0  0  0  0  0  0  0
    0.9817    5.1638   11.1691 H   0  0  0  0  0  0  0  0  0  0  0  0
    5.0250    5.5256   14.8863 H   0  0  0  0  0  0  0  0  0  0  0  0
    7.4867    5.5789   15.3186 H   0  0  0  0  0  0  0  0  0  0  0  0
    9.0948    5.2789   13.4594 H   0  0  0  0  0  0  0  0  0  0  0  0
    8.2636    4.8866   11.1290 H   0  0  0  0  0  0  0  0  0  0  0  0
    5.7148    4.3912    9.7489 H   0  0  0  0  0  0  0  0  0  0  0  0
   -0.9153    6.4108   10.1970 H   0  0  0  0  0  0  0  0  0  0  0  0
   -3.0606    7.6715    9.0723 H   0  0  0  0  0  0  0  0  0  0  0  0
   -5.5198    6.8014    9.8111 H   0  0  0  0  0  0  0  0  0  0  0  0
   -2.9429    3.4359    7.7521 H   0  0  0  0  0  0  0  0  0  0  0  0
   -3.6393    0.8982    9.6626 H   0  0  0  0  0  0  0  0  0  0  0  0
   -2.6026    1.0450    8.4968 H   0  0  0  0  0  0  0  0  0  0  0  0
   -4.6508    0.0132    7.3050 H   0  0  0  0  0  0  0  0  0  0  0  0
   -5.4596    0.1686    8.8159 H   0  0  0  0  0  0  0  0  0  0  0  0
   -6.7652    1.8640    8.0413 H   0  0  0  0  0  0  0  0  0  0  0  0
   -6.0229    1.6968    6.4655 H   0  0  0  0  0  0  0  0  0  0  0  0
   -4.9680    3.7265    6.6971 H   0  0  0  0  0  0  0  0  0  0  0  0
   -5.8809    3.9326    8.1600 H   0  0  0  0  0  0  0  0  0  0  0  0
  1  2  2  0
  2  3  1  0
  3  4  1  0
  4  5  1  0
  5  6  2  0
  6  7  1  0
  7  8  2  0
  8  9  1  0
  9 10  2  0
 10 11  1  0
 11 12  2  0
 12 13  1  0
  2 14  1  0
 14 15  1  0
 15 16  2  0
 16 17  1  0
 17 18  2  0
 18 19  1  0
 19 20  1  0
 20 21  1  0
 21 22  1  0
 22 23  1  0
 23 24  1  0
 13  5  1  0
 19 15  1  0
 24 20  1  0
 12  7  1  0
  3 25  1  0
  3 26  1  0
  8 27  1  0
  9 28  1  0
 10 29  1  0
 11 30  1  0
 13 31  1  0
 14 32  1  0
 16 33  1  0
 17 34  1  0
 20 35  1  0
 21 36  1  0
 21 37  1  0
 22 38  1  0
 22 39  1  0
 23 40  1  0
 23 41  1  0
 24 42  1  0
 24 43  1  0
M  END
>  <Energy>  (1208) 
154.18734057492679

>  <compound_id>  (1208) 
6590

>  <target_id>  (1208) 
1

>  <reference_id>  (1208) 
103

>  <inspiration_ids>  (1208) 
[127, 103]

>  <energy_score>  (1208) 
65.68816181236645

>  <distance_score>  (1208) 
9.04939553291256

>  <path>  (1208) 
/opt/xchem-fragalysis-2/maxwin/BulkDock/SCRATCH/511018/C6590-P103/C6590-P103.minimised.mol

>  <scratch_subdir>  (1208) 
/opt/xchem-fragalysis-2/maxwin/BulkDock/SCRATCH/511018/C6590-P103

>  <fragmenstein_runtime>  (1208) 
14.62918996810913

>  <fragmenstein_outcome>  (1208) 
too moved

>  <fragmenstein_mode>  (1208) 
expansion

>  <fragmenstein_error>  (1208) 


$$$$
C6592-P127
     RDKit          3D

 45 48  0  0  0  0  0  0  0  0999 V2000
   -1.9980    2.8914   12.5299 O   0  0  0  0  0  0  0  0  0  0  0  0
   -1.5439    1.7419   12.6405 C   0  0  0  0  0  0  0  0  0  0  0  0
   -0.3860    1.6998   13.8746 C   0  0  0  0  0  0  0  0  0  0  0  0
    0.6547    2.8835   14.0461 C   0  0  0  0  0  0  0  0  0  0  0  0
    1.5641    2.7637   15.2849 C   0  0  0  0  0  0  0  0  0  0  0  0
    1.4855    1.8952   16.2819 N   0  0  0  0  0  0  0  0  0  0  0  0
    2.5293    2.1864   17.1451 C   0  0  0  0  0  0  0  0  0  0  0  0
    2.9552    1.5281   18.3147 C   0  0  0  0  0  0  0  0  0  0  0  0
    4.1461    1.9352   18.9396 C   0  0  0  0  0  0  0  0  0  0  0  0
    4.8739    3.0178   18.4456 C   0  0  0  0  0  0  0  0  0  0  0  0
    4.4240    3.7368   17.3293 C   0  0  0  0  0  0  0  0  0  0  0  0
    3.2522    3.2811   16.6982 C   0  0  0  0  0  0  0  0  0  0  0  0
    2.6233    3.6294   15.5187 N   0  0  0  0  0  0  0  0  0  0  0  0
   -1.8520    0.2178   11.6017 N   0  0  0  0  0  0  0  0  0  0  0  0
   -2.9128   -0.0269    9.8799 C   0  0  0  0  0  0  0  0  0  0  0  0
   -3.4986    0.8807    8.8037 C   0  0  0  0  0  0  0  0  0  0  0  0
   -4.7811    0.3862    8.4385 C   0  0  0  0  0  0  0  0  0  0  0  0
   -4.8891   -0.8349    8.9103 N   0  0  0  0  0  0  0  0  0  0  0  0
   -3.5483   -1.1726    8.9999 N   0  0  0  0  0  0  0  0  0  0  0  0
   -3.1616   -1.6618    7.6145 C   0  0  0  0  0  0  0  0  0  0  0  0
   -3.3702   -0.7536    6.3507 C   0  0  0  0  0  0  0  0  0  0  0  0
   -4.6549   -1.1543    5.6428 C   0  0  0  0  0  0  0  0  0  0  0  0
   -4.5836   -2.6519    5.7354 C   0  0  0  0  0  0  0  0  0  0  0  0
   -4.0170   -2.8906    7.1375 C   0  0  0  0  0  0  0  0  0  0  0  0
    0.2975    0.8638   13.7002 H   0  0  0  0  0  0  0  0  0  0  0  0
   -0.9498    1.7448   14.8123 H   0  0  0  0  0  0  0  0  0  0  0  0
    1.2824    2.9421   13.1497 H   0  0  0  0  0  0  0  0  0  0  0  0
    0.1021    3.8281   14.1132 H   0  0  0  0  0  0  0  0  0  0  0  0
    2.3907    0.6801   18.6845 H   0  0  0  0  0  0  0  0  0  0  0  0
    4.4965    1.4071   19.8221 H   0  0  0  0  0  0  0  0  0  0  0  0
    5.7937    3.3202   18.9419 H   0  0  0  0  0  0  0  0  0  0  0  0
    4.9949    4.5649   16.9254 H   0  0  0  0  0  0  0  0  0  0  0  0
    2.9459    4.3376   14.8785 H   0  0  0  0  0  0  0  0  0  0  0  0
   -1.3924   -0.5939   12.0046 H   0  0  0  0  0  0  0  0  0  0  0  0
   -3.2503    1.9021    8.5425 H   0  0  0  0  0  0  0  0  0  0  0  0
   -5.5967    0.8619    7.9075 H   0  0  0  0  0  0  0  0  0  0  0  0
   -2.1089   -1.8592    7.7246 H   0  0  0  0  0  0  0  0  0  0  0  0
   -3.3044    0.3220    6.4837 H   0  0  0  0  0  0  0  0  0  0  0  0
   -2.5930   -1.0211    5.6395 H   0  0  0  0  0  0  0  0  0  0  0  0
   -4.6771   -0.8089    4.6047 H   0  0  0  0  0  0  0  0  0  0  0  0
   -5.5494   -0.7746    6.1425 H   0  0  0  0  0  0  0  0  0  0  0  0
   -5.5692   -3.1116    5.6043 H   0  0  0  0  0  0  0  0  0  0  0  0
   -3.9341   -3.0712    4.9650 H   0  0  0  0  0  0  0  0  0  0  0  0
   -4.9354   -3.0009    7.6997 H   0  0  0  0  0  0  0  0  0  0  0  0
   -3.4510   -3.8203    7.2060 H   0  0  0  0  0  0  0  0  0  0  0  0
  1  2  2  0
  2  3  1  0
  3  4  1  0
  4  5  1  0
  5  6  2  0
  6  7  1  0
  7  8  2  0
  8  9  1  0
  9 10  2  0
 10 11  1  0
 11 12  2  0
 12 13  1  0
  2 14  1  0
 14 15  1  0
 15 16  2  0
 16 17  1  0
 17 18  2  0
 18 19  1  0
 19 20  1  0
 20 21  1  0
 21 22  1  0
 22 23  1  0
 23 24  1  0
 13  5  1  0
 19 15  1  0
 24 20  1  0
 12  7  1  0
  3 25  1  0
  3 26  1  0
  4 27  1  0
  4 28  1  0
  8 29  1  0
  9 30  1  0
 10 31  1  0
 11 32  1  0
 13 33  1  0
 14 34  1  0
 16 35  1  0
 17 36  1  0
 20 37  1  0
 21 38  1  0
 21 39  1  0
 22 40  1  0
 22 41  1  0
 23 42  1  0
 23 43  1  0
 24 44  1  0
 24 45  1  0
M  END
>  <Energy>  (1209) 
387.81069403762473

>  <compound_id>  (1209) 
6592

>  <target_id>  (1209) 
1

>  <reference_id>  (1209) 
127

>  <inspiration_ids>  (1209) 
[127, 103]

>  <energy_score>  (1209) 
331.11628817145066

>  <distance_score>  (1209) 
8.641443489092586

>  <path>  (1209) 
/opt/xchem-fragalysis-2/maxwin/BulkDock/SCRATCH/511018/C6592-P127/C6592-P127.minimised.mol

>  <scratch_subdir>  (1209) 
/opt/xchem-fragalysis-2/maxwin/BulkDock/SCRATCH/511018/C6592-P127

>  <fragmenstein_runtime>  (1209) 
11.489813804626465

>  <fragmenstein_outcome>  (1209) 
too moved

>  <fragmenstein_mode>  (1209) 
expansion

>  <fragmenstein_error>  (1209) 


$$$$
C6592-P103
     RDKit          3D

 45 48  0  0  0  0  0  0  0  0999 V2000
    0.2833    3.9886    8.4421 O   0  0  0  0  0  0  0  0  0  0  0  0
    0.1023    4.8919    9.2181 C   0  0  0  0  0  0  0  0  0  0  0  0
    1.3145    5.3393   10.1900 C   0  0  0  0  0  0  0  0  0  0  0  0
    2.6920    4.5949    9.9866 C   0  0  0  0  0  0  0  0  0  0  0  0
    3.8476    4.8407   10.9660 C   0  0  0  0  0  0  0  0  0  0  0  0
    3.8190    5.0933   12.2633 N   0  0  0  0  0  0  0  0  0  0  0  0
    5.1402    5.1416   12.6887 C   0  0  0  0  0  0  0  0  0  0  0  0
    5.6878    5.3603   13.9674 C   0  0  0  0  0  0  0  0  0  0  0  0
    7.0862    5.3936   14.1269 C   0  0  0  0  0  0  0  0  0  0  0  0
    7.9336    5.2268   13.0297 C   0  0  0  0  0  0  0  0  0  0  0  0
    7.4085    5.0118   11.7481 C   0  0  0  0  0  0  0  0  0  0  0  0
    6.0101    4.9519   11.6241 C   0  0  0  0  0  0  0  0  0  0  0  0
    5.1705    4.7089   10.5612 N   0  0  0  0  0  0  0  0  0  0  0  0
   -1.1230    5.6591    9.5360 N   0  0  0  0  0  0  0  0  0  0  0  0
   -2.4776    5.4976    9.0896 C   0  0  0  0  0  0  0  0  0  0  0  0
   -3.3053    6.6127    8.9999 C   0  0  0  0  0  0  0  0  0  0  0  0
   -4.5593    6.2259    9.4819 C   0  0  0  0  0  0  0  0  0  0  0  0
   -4.5806    4.9502    9.8378 N   0  0  0  0  0  0  0  0  0  0  0  0
   -3.4460    4.4101    9.2879 N   0  0  0  0  0  0  0  0  0  0  0  0
   -3.7267    3.2019    8.4694 C   0  0  0  0  0  0  0  0  0  0  0  0
   -3.5927    1.4255    8.7387 C   0  0  0  0  0  0  0  0  0  0  0  0
   -4.8999    0.7434    8.0765 C   0  0  0  0  0  0  0  0  0  0  0  0
   -5.7726    1.8592    7.4700 C   0  0  0  0  0  0  0  0  0  0  0  0
   -5.1761    3.2717    7.7489 C   0  0  0  0  0  0  0  0  0  0  0  0
    0.9725    5.1715   11.2182 H   0  0  0  0  0  0  0  0  0  0  0  0
    1.4682    6.4159   10.0535 H   0  0  0  0  0  0  0  0  0  0  0  0
    3.0447    4.8536    8.9789 H   0  0  0  0  0  0  0  0  0  0  0  0
    2.5135    3.5154    9.9624 H   0  0  0  0  0  0  0  0  0  0  0  0
    5.0212    5.4909   14.8129 H   0  0  0  0  0  0  0  0  0  0  0  0
    7.5032    5.5664   15.1156 H   0  0  0  0  0  0  0  0  0  0  0  0
    9.0106    5.2825   13.1696 H   0  0  0  0  0  0  0  0  0  0  0  0
    8.0559    4.8957   10.8859 H   0  0  0  0  0  0  0  0  0  0  0  0
    5.4610    4.4726    9.6249 H   0  0  0  0  0  0  0  0  0  0  0  0
   -0.8905    6.4046   10.1794 H   0  0  0  0  0  0  0  0  0  0  0  0
   -2.9793    7.6276    8.8236 H   0  0  0  0  0  0  0  0  0  0  0  0
   -5.4301    6.8401    9.6700 H   0  0  0  0  0  0  0  0  0  0  0  0
   -2.9892    3.4331    7.7127 H   0  0  0  0  0  0  0  0  0  0  0  0
   -2.5988    1.0414    8.4963 H   0  0  0  0  0  0  0  0  0  0  0  0
   -3.6374    0.8938    9.6634 H   0  0  0  0  0  0  0  0  0  0  0  0
   -4.6422   -0.0262    7.3411 H   0  0  0  0  0  0  0  0  0  0  0  0
   -5.4788    0.1951    8.8304 H   0  0  0  0  0  0  0  0  0  0  0  0
   -5.8676    1.7090    6.3874 H   0  0  0  0  0  0  0  0  0  0  0  0
   -6.7909    1.7985    7.8714 H   0  0  0  0  0  0  0  0  0  0  0  0
   -5.0730    3.8247    6.8059 H   0  0  0  0  0  0  0  0  0  0  0  0
   -5.9216    3.8235    8.3266 H   0  0  0  0  0  0  0  0  0  0  0  0
  1  2  2  0
  2  3  1  0
  3  4  1  0
  4  5  1  0
  5  6  2  0
  6  7  1  0
  7  8  2  0
  8  9  1  0
  9 10  2  0
 10 11  1  0
 11 12  2  0
 12 13  1  0
  2 14  1  0
 14 15  1  0
 15 16  2  0
 16 17  1  0
 17 18  2  0
 18 19  1  0
 19 20  1  0
 20 21  1  0
 21 22  1  0
 22 23  1  0
 23 24  1  0
 13  5  1  0
 19 15  1  0
 24 20  1  0
 12  7  1  0
  3 25  1  0
  3 26  1  0
  4 27  1  0
  4 28  1  0
  8 29  1  0
  9 30  1  0
 10 31  1  0
 11 32  1  0
 13 33  1  0
 14 34  1  0
 16 35  1  0
 17 36  1  0
 20 37  1  0
 21 38  1  0
 21 39  1  0
 22 40  1  0
 22 41  1  0
 23 42  1  0
 23 43  1  0
 24 44  1  0
 24 45  1  0
M  END
>  <Energy>  (1210) 
142.11165912599253

>  <compound_id>  (1210) 
6592

>  <target_id>  (1210) 
1

>  <reference_id>  (1210) 
103

>  <inspiration_ids>  (1210) 
[127, 103]

>  <energy_score>  (1210) 
85.41725325982537

>  <distance_score>  (1210) 
9.127989433585693

>  <path>  (1210) 
/opt/xchem-fragalysis-2/maxwin/BulkDock/SCRATCH/511018/C6592-P103/C6592-P103.minimised.mol

>  <scratch_subdir>  (1210) 
/opt/xchem-fragalysis-2/maxwin/BulkDock/SCRATCH/511018/C6592-P103

>  <fragmenstein_runtime>  (1210) 
17.399580001831055

>  <fragmenstein_outcome>  (1210) 
too moved

>  <fragmenstein_mode>  (1210) 
expansion

>  <fragmenstein_error>  (1210) 


$$$$
C6605-P127
     RDKit          3D

 45 48  0  0  0  0  0  0  0  0999 V2000
   16.7170    0.9117   13.7985 C   0  0  0  0  0  0  0  0  0  0  0  0
   15.5902   -0.0910   13.6949 N   0  0  0  0  0  0  0  0  0  0  0  0
   16.2724   -0.3307   12.3552 C   0  0  0  0  0  0  0  0  0  0  0  0
   15.9540    0.6224   11.2352 C   0  0  0  0  0  0  0  0  0  0  0  0
   16.8107    1.4294   10.6382 N   0  0  0  0  0  0  0  0  0  0  0  0
   16.0778    2.1064    9.6943 C   0  0  0  0  0  0  0  0  0  0  0  0
   16.4848    3.0914    8.7826 C   0  0  0  0  0  0  0  0  0  0  0  0
   15.5297    3.6457    7.9211 C   0  0  0  0  0  0  0  0  0  0  0  0
   14.1971    3.2291    7.9692 C   0  0  0  0  0  0  0  0  0  0  0  0
   13.7736    2.2464    8.8720 C   0  0  0  0  0  0  0  0  0  0  0  0
   14.7472    1.7052    9.7141 C   0  0  0  0  0  0  0  0  0  0  0  0
   14.6961    0.7429   10.6910 N   0  0  0  0  0  0  0  0  0  0  0  0
   14.2413    0.5556   14.0245 C   0  0  0  0  0  0  0  0  0  0  0  0
   13.4585    1.0879   13.3208 O   0  0  0  0  0  0  0  0  0  0  0  0
   13.9980    0.2891   15.5333 C   0  0  0  0  0  0  0  0  0  0  0  0
   13.1817   -0.9782   15.7591 C   0  0  0  0  0  0  0  0  0  0  0  0
   13.6764   -2.0169   16.5649 C   0  0  0  0  0  0  0  0  0  0  0  0
   12.9641   -3.2094   16.6940 C   0  0  0  0  0  0  0  0  0  0  0  0
   11.7555   -3.3759   16.0236 C   0  0  0  0  0  0  0  0  0  0  0  0
   11.2347   -2.3427   15.2540 C   0  0  0  0  0  0  0  0  0  0  0  0
   11.9421   -1.1530   15.1220 C   0  0  0  0  0  0  0  0  0  0  0  0
   13.4306    1.4717   16.2000 N   0  0  0  0  0  0  0  0  0  0  0  0
   14.1502    2.4155   16.8937 C   0  0  0  0  0  0  0  0  0  0  0  0
   13.2456    3.3527   17.3310 C   0  0  0  0  0  0  0  0  0  0  0  0
   12.0054    2.8945   16.8583 C   0  0  0  0  0  0  0  0  0  0  0  0
   12.1044    1.7433   16.1934 N   0  0  0  0  0  0  0  0  0  0  0  0
   17.7384    0.5023   13.8185 H   0  0  0  0  0  0  0  0  0  0  0  0
   16.6171    1.3056   14.8221 H   0  0  0  0  0  0  0  0  0  0  0  0
   16.5861    1.8275   13.2068 H   0  0  0  0  0  0  0  0  0  0  0  0
   17.3216   -0.6696   12.3825 H   0  0  0  0  0  0  0  0  0  0  0  0
   15.7717   -1.2617   12.0453 H   0  0  0  0  0  0  0  0  0  0  0  0
   17.5199    3.4119    8.7546 H   0  0  0  0  0  0  0  0  0  0  0  0
   15.8316    4.4098    7.2089 H   0  0  0  0  0  0  0  0  0  0  0  0
   13.4731    3.6765    7.2915 H   0  0  0  0  0  0  0  0  0  0  0  0
   12.7393    1.9255    8.9114 H   0  0  0  0  0  0  0  0  0  0  0  0
   13.8702    0.2431   11.0000 H   0  0  0  0  0  0  0  0  0  0  0  0
   14.9732    0.1466   16.0183 H   0  0  0  0  0  0  0  0  0  0  0  0
   14.6260   -1.9140   17.0850 H   0  0  0  0  0  0  0  0  0  0  0  0
   13.3502   -4.0130   17.3171 H   0  0  0  0  0  0  0  0  0  0  0  0
   11.2123   -4.3123   16.1134 H   0  0  0  0  0  0  0  0  0  0  0  0
   10.2802   -2.4642   14.7480 H   0  0  0  0  0  0  0  0  0  0  0  0
   11.5163   -0.3625   14.5028 H   0  0  0  0  0  0  0  0  0  0  0  0
   15.2227    2.3441   17.0073 H   0  0  0  0  0  0  0  0  0  0  0  0
   13.4559    4.2461   17.9005 H   0  0  0  0  0  0  0  0  0  0  0  0
   11.0294    3.3462   16.9744 H   0  0  0  0  0  0  0  0  0  0  0  0
  1  2  1  0
  2  3  1  0
  3  4  1  0
  4  5  2  0
  5  6  1  0
  6  7  2  0
  7  8  1  0
  8  9  2  0
  9 10  1  0
 10 11  2  0
 11 12  1  0
  2 13  1  0
 13 14  2  0
 13 15  1  0
 15 16  1  0
 16 17  2  0
 17 18  1  0
 18 19  2  0
 19 20  1  0
 20 21  2  0
 15 22  1  0
 22 23  1  0
 23 24  2  0
 24 25  1  0
 25 26  2  0
 12  4  1  0
 21 16  1  0
 26 22  1  0
 11  6  1  0
  1 27  1  0
  1 28  1  0
  1 29  1  0
  3 30  1  0
  3 31  1  0
  7 32  1  0
  8 33  1  0
  9 34  1  0
 10 35  1  0
 12 36  1  0
 15 37  1  0
 17 38  1  0
 18 39  1  0
 19 40  1  0
 20 41  1  0
 21 42  1  0
 23 43  1  0
 24 44  1  0
 25 45  1  0
M  END
>  <Energy>  (1211) 
171.45292378784742

>  <compound_id>  (1211) 
6605

>  <target_id>  (1211) 
1

>  <reference_id>  (1211) 
127

>  <inspiration_ids>  (1211) 
[127, 103]

>  <energy_score>  (1211) 
46.602716134626746

>  <distance_score>  (1211) 
1.454929764753087

>  <path>  (1211) 
/opt/xchem-fragalysis-2/maxwin/BulkDock/SCRATCH/511018/C6605-P127/C6605-P127.minimised.mol

>  <scratch_subdir>  (1211) 
/opt/xchem-fragalysis-2/maxwin/BulkDock/SCRATCH/511018/C6605-P127

>  <fragmenstein_runtime>  (1211) 
89.26651787757874

>  <fragmenstein_outcome>  (1211) 
too moved

>  <fragmenstein_mode>  (1211) 
expansion

>  <fragmenstein_error>  (1211) 


$$$$
C6605-P103
     RDKit          3D

 45 48  0  0  0  0  0  0  0  0999 V2000
   16.2891   -1.5532   13.6596 C   0  0  0  0  0  0  0  0  0  0  0  0
   14.9470   -0.8902   13.4477 N   0  0  0  0  0  0  0  0  0  0  0  0
   15.2910   -1.2404   12.0104 C   0  0  0  0  0  0  0  0  0  0  0  0
   16.2572   -0.3572   11.2603 C   0  0  0  0  0  0  0  0  0  0  0  0
   17.2468   -0.7707   10.4912 N   0  0  0  0  0  0  0  0  0  0  0  0
   17.8403    0.3701   10.0073 C   0  0  0  0  0  0  0  0  0  0  0  0
   18.9364    0.5158    9.1450 C   0  0  0  0  0  0  0  0  0  0  0  0
   19.3592    1.8086    8.8089 C   0  0  0  0  0  0  0  0  0  0  0  0
   18.7054    2.9317    9.3227 C   0  0  0  0  0  0  0  0  0  0  0  0
   17.6096    2.8050   10.1844 C   0  0  0  0  0  0  0  0  0  0  0  0
   17.2071    1.5054   10.4972 C   0  0  0  0  0  0  0  0  0  0  0  0
   16.2015    1.0167   11.2891 N   0  0  0  0  0  0  0  0  0  0  0  0
   14.8814    0.4658   14.1538 C   0  0  0  0  0  0  0  0  0  0  0  0
   15.1617    1.5448   13.7629 O   0  0  0  0  0  0  0  0  0  0  0  0
   14.3811    0.2198   15.6097 C   0  0  0  0  0  0  0  0  0  0  0  0
   13.4723   -0.9900   15.8087 C   0  0  0  0  0  0  0  0  0  0  0  0
   13.8728   -2.0514   16.6370 C   0  0  0  0  0  0  0  0  0  0  0  0
   13.1001   -3.2072   16.7212 C   0  0  0  0  0  0  0  0  0  0  0  0
   11.9217   -3.3094   15.9894 C   0  0  0  0  0  0  0  0  0  0  0  0
   11.4883   -2.2511   15.2015 C   0  0  0  0  0  0  0  0  0  0  0  0
   12.2570   -1.0975   15.1116 C   0  0  0  0  0  0  0  0  0  0  0  0
   13.7741    1.4339   16.1783 N   0  0  0  0  0  0  0  0  0  0  0  0
   14.2980    2.1991   17.1896 C   0  0  0  0  0  0  0  0  0  0  0  0
   13.4046    3.2192   17.4068 C   0  0  0  0  0  0  0  0  0  0  0  0
   12.3731    2.9915   16.4804 C   0  0  0  0  0  0  0  0  0  0  0  0
   12.5843    1.9060   15.7340 N   0  0  0  0  0  0  0  0  0  0  0  0
   16.3502   -2.6214   13.4029 H   0  0  0  0  0  0  0  0  0  0  0  0
   16.3978   -1.5806   14.7547 H   0  0  0  0  0  0  0  0  0  0  0  0
   17.1631   -0.9521   13.3730 H   0  0  0  0  0  0  0  0  0  0  0  0
   14.3315   -1.0085   11.5189 H   0  0  0  0  0  0  0  0  0  0  0  0
   15.3829   -2.3152   11.7804 H   0  0  0  0  0  0  0  0  0  0  0  0
   19.4404   -0.3600    8.7530 H   0  0  0  0  0  0  0  0  0  0  0  0
   20.2078    1.9366    8.1413 H   0  0  0  0  0  0  0  0  0  0  0  0
   19.0543    3.9253    9.0485 H   0  0  0  0  0  0  0  0  0  0  0  0
   17.1012    3.6750   10.5859 H   0  0  0  0  0  0  0  0  0  0  0  0
   15.5742    1.5658   11.8680 H   0  0  0  0  0  0  0  0  0  0  0  0
   15.2986    0.0606   16.1941 H   0  0  0  0  0  0  0  0  0  0  0  0
   14.8009   -1.9994   17.2010 H   0  0  0  0  0  0  0  0  0  0  0  0
   13.4161   -4.0326   17.3531 H   0  0  0  0  0  0  0  0  0  0  0  0
   11.3346   -4.2199   16.0425 H   0  0  0  0  0  0  0  0  0  0  0  0
   10.5623   -2.3319   14.6393 H   0  0  0  0  0  0  0  0  0  0  0  0
   11.9123   -0.2958   14.4591 H   0  0  0  0  0  0  0  0  0  0  0  0
   15.2402    1.9570   17.6599 H   0  0  0  0  0  0  0  0  0  0  0  0
   13.4755    4.0127   18.1363 H   0  0  0  0  0  0  0  0  0  0  0  0
   11.4694    3.5674   16.3303 H   0  0  0  0  0  0  0  0  0  0  0  0
  1  2  1  0
  2  3  1  0
  3  4  1  0
  4  5  2  0
  5  6  1  0
  6  7  2  0
  7  8  1  0
  8  9  2  0
  9 10  1  0
 10 11  2  0
 11 12  1  0
  2 13  1  0
 13 14  2  0
 13 15  1  0
 15 16  1  0
 16 17  2  0
 17 18  1  0
 18 19  2  0
 19 20  1  0
 20 21  2  0
 15 22  1  0
 22 23  1  0
 23 24  2  0
 24 25  1  0
 25 26  2  0
 12  4  1  0
 21 16  1  0
 26 22  1  0
 11  6  1  0
  1 27  1  0
  1 28  1  0
  1 29  1  0
  3 30  1  0
  3 31  1  0
  7 32  1  0
  8 33  1  0
  9 34  1  0
 10 35  1  0
 12 36  1  0
 15 37  1  0
 17 38  1  0
 18 39  1  0
 19 40  1  0
 20 41  1  0
 21 42  1  0
 23 43  1  0
 24 44  1  0
 25 45  1  0
M  END
>  <Energy>  (1212) 
170.00197499728893

>  <compound_id>  (1212) 
6605

>  <target_id>  (1212) 
1

>  <reference_id>  (1212) 
103

>  <inspiration_ids>  (1212) 
[127, 103]

>  <energy_score>  (1212) 
45.151767344065576

>  <distance_score>  (1212) 
1.4046162811696672

>  <path>  (1212) 
/opt/xchem-fragalysis-2/maxwin/BulkDock/SCRATCH/511018/C6605-P103/C6605-P103.minimised.mol

>  <scratch_subdir>  (1212) 
/opt/xchem-fragalysis-2/maxwin/BulkDock/SCRATCH/511018/C6605-P103

>  <fragmenstein_runtime>  (1212) 
88.59561395645142

>  <fragmenstein_outcome>  (1212) 
too moved

>  <fragmenstein_mode>  (1212) 
expansion

>  <fragmenstein_error>  (1212) 


$$$$
C6630-P127
     RDKit          3D

 42 45  0  0  0  0  0  0  0  0999 V2000
   -1.9251   -1.3230    9.5732 O   0  0  0  0  0  0  0  0  0  0  0  0
   -1.1052   -1.4262    8.8259 C   0  0  0  0  0  0  0  0  0  0  0  0
    0.9198   -1.6695    9.7091 C   0  0  0  0  0  0  0  0  0  0  0  0
    2.4773   -2.5151   10.8087 N   0  0  0  0  0  0  0  0  0  0  0  0
    3.7449   -2.4095   11.3700 C   0  0  0  0  0  0  0  0  0  0  0  0
    4.5528   -3.3873   11.7946 N   0  0  0  0  0  0  0  0  0  0  0  0
    3.9391   -3.7790   12.8200 C   0  0  0  0  0  0  0  0  0  0  0  0
    4.2128   -4.2059   14.1130 C   0  0  0  0  0  0  0  0  0  0  0  0
    3.4254   -5.1892   14.6968 C   0  0  0  0  0  0  0  0  0  0  0  0
    2.4281   -5.7143   13.9287 C   0  0  0  0  0  0  0  0  0  0  0  0
    2.0868   -5.0768   12.7258 C   0  0  0  0  0  0  0  0  0  0  0  0
    2.7313   -3.8071   12.2401 C   0  0  0  0  0  0  0  0  0  0  0  0
   -1.5858   -1.2391    7.2426 N   0  0  0  0  0  0  0  0  0  0  0  0
   -2.8269   -0.8743    6.6648 C   0  0  0  0  0  0  0  0  0  0  0  0
   -3.5632    0.1912    7.2086 C   0  0  0  0  0  0  0  0  0  0  0  0
   -4.4888    0.5592    6.2204 C   0  0  0  0  0  0  0  0  0  0  0  0
   -4.4293   -0.2888    5.1924 N   0  0  0  0  0  0  0  0  0  0  0  0
   -3.7690   -1.3519    5.7412 N   0  0  0  0  0  0  0  0  0  0  0  0
   -4.5994   -2.5562    5.9242 C   0  0  0  0  0  0  0  0  0  0  0  0
   -5.7419   -2.3982    6.9389 C   0  0  0  0  0  0  0  0  0  0  0  0
   -6.9516   -1.8558    6.1837 C   0  0  0  0  0  0  0  0  0  0  0  0
   -6.7157   -2.1988    4.7196 C   0  0  0  0  0  0  0  0  0  0  0  0
   -5.4005   -2.9725    4.6815 C   0  0  0  0  0  0  0  0  0  0  0  0
    1.4124   -1.9597    8.7499 H   0  0  0  0  0  0  0  0  0  0  0  0
    1.4349   -0.7380    9.8035 H   0  0  0  0  0  0  0  0  0  0  0  0
    4.1465   -1.4641   11.6648 H   0  0  0  0  0  0  0  0  0  0  0  0
    5.0926   -3.8291   14.6244 H   0  0  0  0  0  0  0  0  0  0  0  0
    3.6710   -5.5977   15.6700 H   0  0  0  0  0  0  0  0  0  0  0  0
    1.8791   -6.5945   14.2505 H   0  0  0  0  0  0  0  0  0  0  0  0
    1.3674   -5.6349   12.1454 H   0  0  0  0  0  0  0  0  0  0  0  0
   -0.7583   -1.2681    6.6721 H   0  0  0  0  0  0  0  0  0  0  0  0
   -3.3188    0.7473    8.1006 H   0  0  0  0  0  0  0  0  0  0  0  0
   -5.1471    1.4165    6.1768 H   0  0  0  0  0  0  0  0  0  0  0  0
   -3.9063   -3.3316    6.2524 H   0  0  0  0  0  0  0  0  0  0  0  0
   -6.0123   -3.3973    7.2919 H   0  0  0  0  0  0  0  0  0  0  0  0
   -5.4953   -1.7821    7.8064 H   0  0  0  0  0  0  0  0  0  0  0  0
   -7.0514   -0.7733    6.3132 H   0  0  0  0  0  0  0  0  0  0  0  0
   -7.8777   -2.3062    6.5572 H   0  0  0  0  0  0  0  0  0  0  0  0
   -6.6550   -1.2871    4.1157 H   0  0  0  0  0  0  0  0  0  0  0  0
   -7.5369   -2.7959    4.3088 H   0  0  0  0  0  0  0  0  0  0  0  0
   -4.8627   -2.8219    3.7553 H   0  0  0  0  0  0  0  0  0  0  0  0
   -5.6631   -4.0310    4.7243 H   0  0  0  0  0  0  0  0  0  0  0  0
  1  2  2  0
  2  3  1  0
  3  4  1  0
  4  5  1  0
  5  6  2  0
  6  7  1  0
  7  8  2  0
  8  9  1  0
  9 10  2  0
 10 11  1  0
 11 12  2  0
  2 13  1  0
 13 14  1  0
 14 15  2  0
 15 16  1  0
 16 17  2  0
 17 18  1  0
 18 19  1  0
 19 20  1  0
 20 21  1  0
 21 22  1  0
 22 23  1  0
 12  4  1  0
 18 14  1  0
 23 19  1  0
 12  7  1  0
  3 24  1  0
  3 25  1  0
  5 26  1  0
  8 27  1  0
  9 28  1  0
 10 29  1  0
 11 30  1  0
 13 31  1  0
 15 32  1  0
 16 33  1  0
 19 34  1  0
 20 35  1  0
 20 36  1  0
 21 37  1  0
 21 38  1  0
 22 39  1  0
 22 40  1  0
 23 41  1  0
 23 42  1  0
M  END
>  <Energy>  (1213) 
747.40559931646283

>  <compound_id>  (1213) 
6630

>  <target_id>  (1213) 
1

>  <reference_id>  (1213) 
127

>  <inspiration_ids>  (1213) 
[127, 103]

>  <energy_score>  (1213) 
653.1617862091995

>  <distance_score>  (1213) 
8.506943570136839

>  <path>  (1213) 
/opt/xchem-fragalysis-2/maxwin/BulkDock/SCRATCH/511018/C6630-P127/C6630-P127.minimised.mol

>  <scratch_subdir>  (1213) 
/opt/xchem-fragalysis-2/maxwin/BulkDock/SCRATCH/511018/C6630-P127

>  <fragmenstein_runtime>  (1213) 
13.549471855163574

>  <fragmenstein_outcome>  (1213) 
too moved

>  <fragmenstein_mode>  (1213) 
expansion

>  <fragmenstein_error>  (1213) 


$$$$
C6630-P103
     RDKit          3D

 42 45  0  0  0  0  0  0  0  0999 V2000
   -1.9850   -3.7311   13.0172 O   0  0  0  0  0  0  0  0  0  0  0  0
   -1.4912   -2.5971   13.1306 C   0  0  0  0  0  0  0  0  0  0  0  0
    0.3424   -2.7090   14.2832 C   0  0  0  0  0  0  0  0  0  0  0  0
    1.9634   -3.8162   14.9975 N   0  0  0  0  0  0  0  0  0  0  0  0
    2.0308   -3.4858   16.7965 C   0  0  0  0  0  0  0  0  0  0  0  0
    2.9192   -3.9172   17.6425 N   0  0  0  0  0  0  0  0  0  0  0  0
    3.9121   -3.3585   17.0108 C   0  0  0  0  0  0  0  0  0  0  0  0
    4.7686   -1.8214   17.4823 C   0  0  0  0  0  0  0  0  0  0  0  0
    6.3540   -1.2723   16.6308 C   0  0  0  0  0  0  0  0  0  0  0  0
    6.3845   -2.2473   15.2152 C   0  0  0  0  0  0  0  0  0  0  0  0
    5.1918   -3.4446   14.8374 C   0  0  0  0  0  0  0  0  0  0  0  0
    3.7450   -4.1885   15.5321 C   0  0  0  0  0  0  0  0  0  0  0  0
   -2.3139   -0.8879   12.5102 N   0  0  0  0  0  0  0  0  0  0  0  0
   -4.0875   -0.4745   11.6890 C   0  0  0  0  0  0  0  0  0  0  0  0
   -5.7523   -0.2979   12.1440 C   0  0  0  0  0  0  0  0  0  0  0  0
   -6.7618   -0.1808   10.8498 C   0  0  0  0  0  0  0  0  0  0  0  0
   -6.0696   -0.2594    9.7293 N   0  0  0  0  0  0  0  0  0  0  0  0
   -4.5972   -0.3871    9.9814 N   0  0  0  0  0  0  0  0  0  0  0  0
   -4.0282   -0.2864    8.6519 C   0  0  0  0  0  0  0  0  0  0  0  0
   -3.6541   -1.5756    7.9916 C   0  0  0  0  0  0  0  0  0  0  0  0
   -4.9028   -2.2039    7.3027 C   0  0  0  0  0  0  0  0  0  0  0  0
   -5.9468   -1.1213    7.1652 C   0  0  0  0  0  0  0  0  0  0  0  0
   -5.1639    0.1372    7.5413 C   0  0  0  0  0  0  0  0  0  0  0  0
    0.0710   -3.7993   14.3003 H   0  0  0  0  0  0  0  0  0  0  0  0
    1.0296   -2.0695   13.7314 H   0  0  0  0  0  0  0  0  0  0  0  0
    1.3195   -2.6899   17.0689 H   0  0  0  0  0  0  0  0  0  0  0  0
    4.5936   -1.5787   18.5391 H   0  0  0  0  0  0  0  0  0  0  0  0
    7.1039   -0.5208   16.7721 H   0  0  0  0  0  0  0  0  0  0  0  0
    7.1634   -2.0727   14.4691 H   0  0  0  0  0  0  0  0  0  0  0  0
    5.1144   -3.5451   13.7382 H   0  0  0  0  0  0  0  0  0  0  0  0
   -1.6792   -0.1339   12.6367 H   0  0  0  0  0  0  0  0  0  0  0  0
   -6.1186   -0.2852   13.1685 H   0  0  0  0  0  0  0  0  0  0  0  0
   -7.8281   -0.0200   10.7562 H   0  0  0  0  0  0  0  0  0  0  0  0
   -3.2122    0.4306    8.7297 H   0  0  0  0  0  0  0  0  0  0  0  0
   -3.0846   -2.2832    8.5757 H   0  0  0  0  0  0  0  0  0  0  0  0
   -2.9504   -1.1800    7.2673 H   0  0  0  0  0  0  0  0  0  0  0  0
   -5.3698   -3.0637    7.7512 H   0  0  0  0  0  0  0  0  0  0  0  0
   -4.6552   -2.7093    6.3818 H   0  0  0  0  0  0  0  0  0  0  0  0
   -6.8065   -1.3185    7.8104 H   0  0  0  0  0  0  0  0  0  0  0  0
   -6.3569   -1.0537    6.1525 H   0  0  0  0  0  0  0  0  0  0  0  0
   -5.7961    0.9827    7.8347 H   0  0  0  0  0  0  0  0  0  0  0  0
   -4.7641    0.4157    6.5745 H   0  0  0  0  0  0  0  0  0  0  0  0
  1  2  2  0
  2  3  1  0
  3  4  1  0
  4  5  1  0
  5  6  2  0
  6  7  1  0
  7  8  2  0
  8  9  1  0
  9 10  2  0
 10 11  1  0
 11 12  2  0
  2 13  1  0
 13 14  1  0
 14 15  2  0
 15 16  1  0
 16 17  2  0
 17 18  1  0
 18 19  1  0
 19 20  1  0
 20 21  1  0
 21 22  1  0
 22 23  1  0
 12  4  1  0
 18 14  1  0
 23 19  1  0
 12  7  1  0
  3 24  1  0
  3 25  1  0
  5 26  1  0
  8 27  1  0
  9 28  1  0
 10 29  1  0
 11 30  1  0
 13 31  1  0
 15 32  1  0
 16 33  1  0
 19 34  1  0
 20 35  1  0
 20 36  1  0
 21 37  1  0
 21 38  1  0
 22 39  1  0
 22 40  1  0
 23 41  1  0
 23 42  1  0
M  END
>  <Energy>  (1214) 
1287.8424362903017

>  <compound_id>  (1214) 
6630

>  <target_id>  (1214) 
1

>  <reference_id>  (1214) 
103

>  <inspiration_ids>  (1214) 
[127, 103]

>  <energy_score>  (1214) 
1193.5986231830498

>  <distance_score>  (1214) 
7.761899216150856

>  <path>  (1214) 
/opt/xchem-fragalysis-2/maxwin/BulkDock/SCRATCH/511018/C6630-P103/C6630-P103.minimised.mol

>  <scratch_subdir>  (1214) 
/opt/xchem-fragalysis-2/maxwin/BulkDock/SCRATCH/511018/C6630-P103

>  <fragmenstein_runtime>  (1214) 
16.302722930908203

>  <fragmenstein_outcome>  (1214) 
too moved

>  <fragmenstein_mode>  (1214) 
expansion

>  <fragmenstein_error>  (1214) 


$$$$
C6631-P127
     RDKit          3D

 43 46  0  0  0  0  0  0  0  0999 V2000
    1.5042   -0.5390   12.3643 O   0  0  0  0  0  0  0  0  0  0  0  0
    2.0513   -0.4899   11.2614 C   0  0  0  0  0  0  0  0  0  0  0  0
    1.0280   -0.8325    9.6100 N   0  0  0  0  0  0  0  0  0  0  0  0
   -0.9198   -1.1275    9.2575 C   0  0  0  0  0  0  0  0  0  0  0  0
   -1.7366   -0.8098    7.7629 C   0  0  0  0  0  0  0  0  0  0  0  0
   -2.6954    0.2881    8.0014 C   0  0  0  0  0  0  0  0  0  0  0  0
   -3.2216   -0.2068    9.1013 N   0  0  0  0  0  0  0  0  0  0  0  0
   -2.6163   -1.4411    8.7961 N   0  0  0  0  0  0  0  0  0  0  0  0
   -3.6479   -2.0361    7.7058 C   0  0  0  0  0  0  0  0  0  0  0  0
   -4.1667   -1.1929    6.4248 C   0  0  0  0  0  0  0  0  0  0  0  0
   -5.1561   -2.0825    5.6920 C   0  0  0  0  0  0  0  0  0  0  0  0
   -5.3266   -3.2478    6.6341 C   0  0  0  0  0  0  0  0  0  0  0  0
   -3.8835   -3.4366    7.2192 C   0  0  0  0  0  0  0  0  0  0  0  0
    4.0347    0.2101   11.4769 C   0  0  0  0  0  0  0  0  0  0  0  0
    4.2316    1.3957   11.2271 O   0  0  0  0  0  0  0  0  0  0  0  0
    5.1959   -1.0810   12.1473 N   0  0  0  0  0  0  0  0  0  0  0  0
    6.9590   -1.0166   12.6694 N   0  0  0  0  0  0  0  0  0  0  0  0
    6.7917   -2.1623   13.7142 C   0  0  0  0  0  0  0  0  0  0  0  0
    7.4002   -2.2429   14.8730 N   0  0  0  0  0  0  0  0  0  0  0  0
    8.4612   -1.4499   14.8119 C   0  0  0  0  0  0  0  0  0  0  0  0
    9.5623   -1.3770   15.6916 C   0  0  0  0  0  0  0  0  0  0  0  0
   10.6914   -0.6065   15.4481 C   0  0  0  0  0  0  0  0  0  0  0  0
   10.7689    0.0805   14.2682 C   0  0  0  0  0  0  0  0  0  0  0  0
    9.6829    0.0454   13.3830 C   0  0  0  0  0  0  0  0  0  0  0  0
    8.3481   -0.6244   13.6652 C   0  0  0  0  0  0  0  0  0  0  0  0
    1.6166   -0.6655    8.8176 H   0  0  0  0  0  0  0  0  0  0  0  0
   -1.2764   -1.0369    6.8044 H   0  0  0  0  0  0  0  0  0  0  0  0
   -3.1015    1.1261    7.4537 H   0  0  0  0  0  0  0  0  0  0  0  0
   -4.5187   -1.8431    8.3576 H   0  0  0  0  0  0  0  0  0  0  0  0
   -4.7049   -0.2865    6.7258 H   0  0  0  0  0  0  0  0  0  0  0  0
   -3.3659   -0.9205    5.7316 H   0  0  0  0  0  0  0  0  0  0  0  0
   -4.7354   -2.4167    4.7371 H   0  0  0  0  0  0  0  0  0  0  0  0
   -6.1022   -1.5735    5.4851 H   0  0  0  0  0  0  0  0  0  0  0  0
   -6.0470   -2.9711    7.4083 H   0  0  0  0  0  0  0  0  0  0  0  0
   -5.7952   -4.0792    6.1133 H   0  0  0  0  0  0  0  0  0  0  0  0
   -3.7179   -4.1789    7.9836 H   0  0  0  0  0  0  0  0  0  0  0  0
   -3.2439   -3.7626    6.4156 H   0  0  0  0  0  0  0  0  0  0  0  0
    4.7312   -2.0236   12.1639 H   0  0  0  0  0  0  0  0  0  0  0  0
    5.9762   -2.8302   13.5595 H   0  0  0  0  0  0  0  0  0  0  0  0
    9.5737   -2.0139   16.5495 H   0  0  0  0  0  0  0  0  0  0  0  0
   11.5267   -0.6135   16.1415 H   0  0  0  0  0  0  0  0  0  0  0  0
   11.6751    0.6149   13.9964 H   0  0  0  0  0  0  0  0  0  0  0  0
    9.8597    0.5091   12.4337 H   0  0  0  0  0  0  0  0  0  0  0  0
  1  2  2  0
  2  3  1  0
  3  4  1  0
  4  5  2  0
  5  6  1  0
  6  7  2  0
  7  8  1  0
  8  9  1  0
  9 10  1  0
 10 11  1  0
 11 12  1  0
 12 13  1  0
  2 14  1  0
 14 15  2  0
 14 16  1  0
 16 17  1  0
 17 18  1  0
 18 19  2  0
 19 20  1  0
 20 21  2  0
 21 22  1  0
 22 23  2  0
 23 24  1  0
 24 25  2  0
  8  4  1  0
 13  9  1  0
 25 17  1  0
 25 20  1  0
  3 26  1  0
  5 27  1  0
  6 28  1  0
  9 29  1  0
 10 30  1  0
 10 31  1  0
 11 32  1  0
 11 33  1  0
 12 34  1  0
 12 35  1  0
 13 36  1  0
 13 37  1  0
 16 38  1  0
 18 39  1  0
 21 40  1  0
 22 41  1  0
 23 42  1  0
 24 43  1  0
M  END
>  <Energy>  (1215) 
1053.1790913557086

>  <compound_id>  (1215) 
6631

>  <target_id>  (1215) 
1

>  <reference_id>  (1215) 
127

>  <inspiration_ids>  (1215) 
[127, 103]

>  <energy_score>  (1215) 
931.8402398662269

>  <distance_score>  (1215) 
6.385983490184526

>  <path>  (1215) 
/opt/xchem-fragalysis-2/maxwin/BulkDock/SCRATCH/511018/C6631-P127/C6631-P127.minimised.mol

>  <scratch_subdir>  (1215) 
/opt/xchem-fragalysis-2/maxwin/BulkDock/SCRATCH/511018/C6631-P127

>  <fragmenstein_runtime>  (1215) 
12.54013705253601

>  <fragmenstein_outcome>  (1215) 
too moved

>  <fragmenstein_mode>  (1215) 
expansion

>  <fragmenstein_error>  (1215) 


$$$$
C6631-P103
     RDKit          3D

 43 46  0  0  0  0  0  0  0  0999 V2000
    0.4006   -0.9972   10.3783 O   0  0  0  0  0  0  0  0  0  0  0  0
   -0.0412   -0.7121   11.4379 C   0  0  0  0  0  0  0  0  0  0  0  0
   -1.8279   -0.1797   11.4717 N   0  0  0  0  0  0  0  0  0  0  0  0
   -3.1187    0.1319    9.9858 C   0  0  0  0  0  0  0  0  0  0  0  0
   -2.6755    0.3867    8.7192 C   0  0  0  0  0  0  0  0  0  0  0  0
   -2.6820   -0.8584    8.1156 C   0  0  0  0  0  0  0  0  0  0  0  0
   -3.7702   -1.5174    8.4217 N   0  0  0  0  0  0  0  0  0  0  0  0
   -4.3540   -0.6437    9.2852 N   0  0  0  0  0  0  0  0  0  0  0  0
   -5.6870   -0.1886    8.7359 C   0  0  0  0  0  0  0  0  0  0  0  0
   -5.7340    0.8804    7.6338 C   0  0  0  0  0  0  0  0  0  0  0  0
   -7.1657    0.8648    7.1296 C   0  0  0  0  0  0  0  0  0  0  0  0
   -7.3943   -0.6099    6.9188 C   0  0  0  0  0  0  0  0  0  0  0  0
   -6.5735   -1.2774    8.0230 C   0  0  0  0  0  0  0  0  0  0  0  0
    1.1275   -0.7655   12.4768 C   0  0  0  0  0  0  0  0  0  0  0  0
    1.1549   -0.5418   13.6408 O   0  0  0  0  0  0  0  0  0  0  0  0
    2.2679   -1.3368   11.4470 N   0  0  0  0  0  0  0  0  0  0  0  0
    4.0171   -1.9788   11.7433 N   0  0  0  0  0  0  0  0  0  0  0  0
    4.9448   -0.6305   11.5632 C   0  0  0  0  0  0  0  0  0  0  0  0
    5.8182   -0.5336   12.6788 N   0  0  0  0  0  0  0  0  0  0  0  0
    6.0627   -2.0046   13.6808 C   0  0  0  0  0  0  0  0  0  0  0  0
    6.9954   -2.3034   14.6897 C   0  0  0  0  0  0  0  0  0  0  0  0
    8.0015   -1.4451   14.5908 C   0  0  0  0  0  0  0  0  0  0  0  0
    7.9093   -1.0182   13.3047 C   0  0  0  0  0  0  0  0  0  0  0  0
    7.0576   -1.9559   12.1825 C   0  0  0  0  0  0  0  0  0  0  0  0
    5.5282   -2.6665   12.5580 C   0  0  0  0  0  0  0  0  0  0  0  0
   -2.1009   -0.0528   12.4376 H   0  0  0  0  0  0  0  0  0  0  0  0
   -2.0863    1.2376    8.5153 H   0  0  0  0  0  0  0  0  0  0  0  0
   -1.9899   -1.2876    7.4341 H   0  0  0  0  0  0  0  0  0  0  0  0
   -6.2921    0.1074    9.5897 H   0  0  0  0  0  0  0  0  0  0  0  0
   -5.1130    0.5664    6.7935 H   0  0  0  0  0  0  0  0  0  0  0  0
   -5.4670    1.8891    7.9343 H   0  0  0  0  0  0  0  0  0  0  0  0
   -7.2914    1.4389    6.2072 H   0  0  0  0  0  0  0  0  0  0  0  0
   -7.8493    1.2656    7.8867 H   0  0  0  0  0  0  0  0  0  0  0  0
   -8.4545   -0.8768    6.9658 H   0  0  0  0  0  0  0  0  0  0  0  0
   -7.0180   -0.9193    5.9366 H   0  0  0  0  0  0  0  0  0  0  0  0
   -7.2961   -1.6739    8.7344 H   0  0  0  0  0  0  0  0  0  0  0  0
   -6.0045   -2.1006    7.5827 H   0  0  0  0  0  0  0  0  0  0  0  0
    1.8531   -1.4853   10.5106 H   0  0  0  0  0  0  0  0  0  0  0  0
    4.4615    0.1149   10.9338 H   0  0  0  0  0  0  0  0  0  0  0  0
    7.0239   -3.1585   15.3010 H   0  0  0  0  0  0  0  0  0  0  0  0
    8.8030   -1.2247   15.2650 H   0  0  0  0  0  0  0  0  0  0  0  0
    8.4900   -0.1732   12.9224 H   0  0  0  0  0  0  0  0  0  0  0  0
    7.1681   -1.5072   11.1872 H   0  0  0  0  0  0  0  0  0  0  0  0
  1  2  2  0
  2  3  1  0
  3  4  1  0
  4  5  2  0
  5  6  1  0
  6  7  2  0
  7  8  1  0
  8  9  1  0
  9 10  1  0
 10 11  1  0
 11 12  1  0
 12 13  1  0
  2 14  1  0
 14 15  2  0
 14 16  1  0
 16 17  1  0
 17 18  1  0
 18 19  2  0
 19 20  1  0
 20 21  2  0
 21 22  1  0
 22 23  2  0
 23 24  1  0
 24 25  2  0
  8  4  1  0
 13  9  1  0
 25 17  1  0
 25 20  1  0
  3 26  1  0
  5 27  1  0
  6 28  1  0
  9 29  1  0
 10 30  1  0
 10 31  1  0
 11 32  1  0
 11 33  1  0
 12 34  1  0
 12 35  1  0
 13 36  1  0
 13 37  1  0
 16 38  1  0
 18 39  1  0
 21 40  1  0
 22 41  1  0
 23 42  1  0
 24 43  1  0
M  END
>  <Energy>  (1216) 
991.30430074700496

>  <compound_id>  (1216) 
6631

>  <target_id>  (1216) 
1

>  <reference_id>  (1216) 
103

>  <inspiration_ids>  (1216) 
[127, 103]

>  <energy_score>  (1216) 
869.9654492575276

>  <distance_score>  (1216) 
7.163174877807504

>  <path>  (1216) 
/opt/xchem-fragalysis-2/maxwin/BulkDock/SCRATCH/511018/C6631-P103/C6631-P103.minimised.mol

>  <scratch_subdir>  (1216) 
/opt/xchem-fragalysis-2/maxwin/BulkDock/SCRATCH/511018/C6631-P103

>  <fragmenstein_runtime>  (1216) 
16.575535535812378

>  <fragmenstein_outcome>  (1216) 
too moved

>  <fragmenstein_mode>  (1216) 
expansion

>  <fragmenstein_error>  (1216) 


$$$$
C6639-P127
     RDKit          3D

 43 46  0  0  0  0  0  0  0  0999 V2000
    6.4868   -0.5196   10.6179 C   0  0  0  0  0  0  0  0  0  0  0  0
    4.8417   -0.6387   11.5785 N   0  0  0  0  0  0  0  0  0  0  0  0
    2.7526   -0.5805   11.6474 C   0  0  0  0  0  0  0  0  0  0  0  0
    1.1755   -1.2462   10.5856 C   0  0  0  0  0  0  0  0  0  0  0  0
   -0.3717   -0.9913   10.7288 C   0  0  0  0  0  0  0  0  0  0  0  0
   -1.9483   -1.1571    9.5085 C   0  0  0  0  0  0  0  0  0  0  0  0
   -2.4836   -1.6271    8.4577 C   0  0  0  0  0  0  0  0  0  0  0  0
   -3.5302   -1.2877    7.5962 N   0  0  0  0  0  0  0  0  0  0  0  0
   -4.2847   -2.2668    6.9797 C   0  0  0  0  0  0  0  0  0  0  0  0
   -5.3743   -1.8093    6.4113 N   0  0  0  0  0  0  0  0  0  0  0  0
   -5.3314   -0.4629    6.6183 C   0  0  0  0  0  0  0  0  0  0  0  0
   -6.2553    0.5099    6.2043 C   0  0  0  0  0  0  0  0  0  0  0  0
   -5.9984    1.8531    6.4810 C   0  0  0  0  0  0  0  0  0  0  0  0
   -4.8335    2.2165    7.1467 C   0  0  0  0  0  0  0  0  0  0  0  0
   -3.9066    1.2532    7.5723 C   0  0  0  0  0  0  0  0  0  0  0  0
   -4.1777   -0.0922    7.3180 C   0  0  0  0  0  0  0  0  0  0  0  0
   -1.1776   -1.5872    8.4819 C   0  0  0  0  0  0  0  0  0  0  0  0
    0.6432   -1.6413    9.3690 C   0  0  0  0  0  0  0  0  0  0  0  0
    6.0931   -1.6581   12.6482 C   0  0  0  0  0  0  0  0  0  0  0  0
    7.3295   -1.7924   13.7762 C   0  0  0  0  0  0  0  0  0  0  0  0
    8.5617   -0.9037   14.1090 C   0  0  0  0  0  0  0  0  0  0  0  0
    9.1026   -1.0794   15.2891 N   0  0  0  0  0  0  0  0  0  0  0  0
    8.3453   -2.0441   15.7392 N   0  0  0  0  0  0  0  0  0  0  0  0
    7.3157   -2.5045   14.9700 C   0  0  0  0  0  0  0  0  0  0  0  0
    7.0665   -0.9997    9.8345 H   0  0  0  0  0  0  0  0  0  0  0  0
    7.2932   -0.7568   11.3392 H   0  0  0  0  0  0  0  0  0  0  0  0
    6.4160    0.4833   10.1089 H   0  0  0  0  0  0  0  0  0  0  0  0
    2.8974   -1.6972   11.4470 H   0  0  0  0  0  0  0  0  0  0  0  0
    2.7650    0.4256   11.1965 H   0  0  0  0  0  0  0  0  0  0  0  0
   -0.7194   -0.5663   11.7166 H   0  0  0  0  0  0  0  0  0  0  0  0
   -2.8160   -0.4141    9.7377 H   0  0  0  0  0  0  0  0  0  0  0  0
   -3.9925   -3.3080    7.0207 H   0  0  0  0  0  0  0  0  0  0  0  0
   -7.1531    0.2078    5.6752 H   0  0  0  0  0  0  0  0  0  0  0  0
   -6.7132    2.6120    6.1736 H   0  0  0  0  0  0  0  0  0  0  0  0
   -4.6395    3.2662    7.3624 H   0  0  0  0  0  0  0  0  0  0  0  0
   -3.0066    1.5684    8.0714 H   0  0  0  0  0  0  0  0  0  0  0  0
   -1.1317   -1.4837    7.2858 H   0  0  0  0  0  0  0  0  0  0  0  0
    1.4129   -1.8546    8.5869 H   0  0  0  0  0  0  0  0  0  0  0  0
    5.6450   -2.6605   12.6320 H   0  0  0  0  0  0  0  0  0  0  0  0
    5.8530   -0.8633   13.2852 H   0  0  0  0  0  0  0  0  0  0  0  0
    9.0456   -0.1965   13.4509 H   0  0  0  0  0  0  0  0  0  0  0  0
    8.5555   -2.2275   16.6862 H   0  0  0  0  0  0  0  0  0  0  0  0
    6.5914   -3.1902   15.3808 H   0  0  0  0  0  0  0  0  0  0  0  0
  1  2  1  0
  2  3  1  0
  3  4  1  0
  4  5  2  0
  5  6  1  0
  6  7  2  0
  7  8  1  0
  8  9  1  0
  9 10  2  0
 10 11  1  0
 11 12  2  0
 12 13  1  0
 13 14  2  0
 14 15  1  0
 15 16  2  0
  7 17  1  0
 17 18  2  0
  2 19  1  0
 19 20  1  0
 20 21  1  0
 21 22  2  0
 22 23  1  0
 23 24  1  0
 18  4  1  0
 24 20  2  0
 16  8  1  0
 16 11  1  0
  1 25  1  0
  1 26  1  0
  1 27  1  0
  3 28  1  0
  3 29  1  0
  5 30  1  0
  6 31  1  0
  9 32  1  0
 12 33  1  0
 13 34  1  0
 14 35  1  0
 15 36  1  0
 17 37  1  0
 18 38  1  0
 19 39  1  0
 19 40  1  0
 21 41  1  0
 23 42  1  0
 24 43  1  0
M  END
>  <Energy>  (1217) 
1047.202442117394

>  <compound_id>  (1217) 
6639

>  <target_id>  (1217) 
1

>  <reference_id>  (1217) 
127

>  <inspiration_ids>  (1217) 
[127, 103]

>  <energy_score>  (1217) 
945.2298564660714

>  <distance_score>  (1217) 
6.670027139062119

>  <path>  (1217) 
/opt/xchem-fragalysis-2/maxwin/BulkDock/SCRATCH/511018/C6639-P127/C6639-P127.minimised.mol

>  <scratch_subdir>  (1217) 
/opt/xchem-fragalysis-2/maxwin/BulkDock/SCRATCH/511018/C6639-P127

>  <fragmenstein_runtime>  (1217) 
10.448874473571777

>  <fragmenstein_outcome>  (1217) 
too moved

>  <fragmenstein_mode>  (1217) 
expansion

>  <fragmenstein_error>  (1217) 


$$$$
C6639-P103
     RDKit          3D

 43 46  0  0  0  0  0  0  0  0999 V2000
    1.9397    2.8294   15.0389 C   0  0  0  0  0  0  0  0  0  0  0  0
    1.9350    2.7815   13.5801 N   0  0  0  0  0  0  0  0  0  0  0  0
    2.5384    1.5960   12.9498 C   0  0  0  0  0  0  0  0  0  0  0  0
    1.7463    0.0309   12.8302 C   0  0  0  0  0  0  0  0  0  0  0  0
    1.8805   -0.7916   11.6626 C   0  0  0  0  0  0  0  0  0  0  0  0
    0.7316   -1.1485   10.6307 C   0  0  0  0  0  0  0  0  0  0  0  0
   -0.8242   -1.1183   10.9348 C   0  0  0  0  0  0  0  0  0  0  0  0
   -1.9400   -0.5621    9.4008 N   0  0  0  0  0  0  0  0  0  0  0  0
   -2.6532   -1.4499    8.4893 C   0  0  0  0  0  0  0  0  0  0  0  0
   -3.9269   -1.2689    8.2112 N   0  0  0  0  0  0  0  0  0  0  0  0
   -4.2079    0.0118    8.4634 C   0  0  0  0  0  0  0  0  0  0  0  0
   -5.3799    0.7559    7.9652 C   0  0  0  0  0  0  0  0  0  0  0  0
   -5.4699    2.2086    7.8518 C   0  0  0  0  0  0  0  0  0  0  0  0
   -4.3429    2.9972    8.2616 C   0  0  0  0  0  0  0  0  0  0  0  0
   -3.1455    2.2141    8.7554 C   0  0  0  0  0  0  0  0  0  0  0  0
   -3.0547    0.6484    9.0026 C   0  0  0  0  0  0  0  0  0  0  0  0
   -0.8327   -0.4554   12.2367 C   0  0  0  0  0  0  0  0  0  0  0  0
    0.5142   -0.0689   13.1988 C   0  0  0  0  0  0  0  0  0  0  0  0
    2.4399    4.0626   13.0218 C   0  0  0  0  0  0  0  0  0  0  0  0
    3.9161    4.3078   12.8625 C   0  0  0  0  0  0  0  0  0  0  0  0
    4.8215    4.9318   13.7640 C   0  0  0  0  0  0  0  0  0  0  0  0
    6.0233    5.1794   13.2227 N   0  0  0  0  0  0  0  0  0  0  0  0
    5.8837    4.7373   11.9602 N   0  0  0  0  0  0  0  0  0  0  0  0
    4.6741    4.1588   11.7155 C   0  0  0  0  0  0  0  0  0  0  0  0
    1.7694    1.8553   15.4996 H   0  0  0  0  0  0  0  0  0  0  0  0
    1.0887    3.4452   15.3573 H   0  0  0  0  0  0  0  0  0  0  0  0
    2.8163    3.2980   15.4889 H   0  0  0  0  0  0  0  0  0  0  0  0
    3.4564    1.4921   13.4308 H   0  0  0  0  0  0  0  0  0  0  0  0
    2.8706    1.8264   11.9270 H   0  0  0  0  0  0  0  0  0  0  0  0
    2.7965   -0.2833   11.2977 H   0  0  0  0  0  0  0  0  0  0  0  0
    1.1233   -1.4868    9.6931 H   0  0  0  0  0  0  0  0  0  0  0  0
   -2.2038   -2.3180    8.1288 H   0  0  0  0  0  0  0  0  0  0  0  0
   -6.1961    0.1532    7.5662 H   0  0  0  0  0  0  0  0  0  0  0  0
   -6.3654    2.6711    7.4453 H   0  0  0  0  0  0  0  0  0  0  0  0
   -4.2890    4.0729    8.1229 H   0  0  0  0  0  0  0  0  0  0  0  0
   -2.2239    2.7820    8.6385 H   0  0  0  0  0  0  0  0  0  0  0  0
   -1.7825   -0.0579   12.5345 H   0  0  0  0  0  0  0  0  0  0  0  0
    0.3972    0.6551   14.0417 H   0  0  0  0  0  0  0  0  0  0  0  0
    1.9856    4.1784   12.0285 H   0  0  0  0  0  0  0  0  0  0  0  0
    2.0121    4.8961   13.5970 H   0  0  0  0  0  0  0  0  0  0  0  0
    4.6323    5.2357   14.7853 H   0  0  0  0  0  0  0  0  0  0  0  0
    6.6535    4.8650   11.3128 H   0  0  0  0  0  0  0  0  0  0  0  0
    4.4304    3.7595   10.7406 H   0  0  0  0  0  0  0  0  0  0  0  0
  1  2  1  0
  2  3  1  0
  3  4  1  0
  4  5  2  0
  5  6  1  0
  6  7  2  0
  7  8  1  0
  8  9  1  0
  9 10  2  0
 10 11  1  0
 11 12  2  0
 12 13  1  0
 13 14  2  0
 14 15  1  0
 15 16  2  0
  7 17  1  0
 17 18  2  0
  2 19  1  0
 19 20  1  0
 20 21  1  0
 21 22  2  0
 22 23  1  0
 23 24  1  0
 18  4  1  0
 24 20  2  0
 16  8  1  0
 16 11  1  0
  1 25  1  0
  1 26  1  0
  1 27  1  0
  3 28  1  0
  3 29  1  0
  5 30  1  0
  6 31  1  0
  9 32  1  0
 12 33  1  0
 13 34  1  0
 14 35  1  0
 15 36  1  0
 17 37  1  0
 18 38  1  0
 19 39  1  0
 19 40  1  0
 21 41  1  0
 23 42  1  0
 24 43  1  0
M  END
>  <Energy>  (1218) 
425.76663423252779

>  <compound_id>  (1218) 
6639

>  <target_id>  (1218) 
1

>  <reference_id>  (1218) 
103

>  <inspiration_ids>  (1218) 
[127, 103]

>  <energy_score>  (1218) 
323.7940485811997

>  <distance_score>  (1218) 
9.622687557324001

>  <path>  (1218) 
/opt/xchem-fragalysis-2/maxwin/BulkDock/SCRATCH/511018/C6639-P103/C6639-P103.minimised.mol

>  <scratch_subdir>  (1218) 
/opt/xchem-fragalysis-2/maxwin/BulkDock/SCRATCH/511018/C6639-P103

>  <fragmenstein_runtime>  (1218) 
15.037049770355225

>  <fragmenstein_outcome>  (1218) 
too moved

>  <fragmenstein_mode>  (1218) 
expansion

>  <fragmenstein_error>  (1218) 


$$$$
C6654-P127
     RDKit          3D

 46 49  0  0  0  0  0  0  0  0999 V2000
   -0.5869   -0.6402   11.6766 O   0  0  0  0  0  0  0  0  0  0  0  0
    0.0452   -1.0235   10.7256 C   0  0  0  0  0  0  0  0  0  0  0  0
   -1.1192   -1.1797    9.1157 N   0  0  0  0  0  0  0  0  0  0  0  0
   -2.6568   -0.7969    8.8392 C   0  0  0  0  0  0  0  0  0  0  0  0
   -3.1231    0.4228    8.2523 C   0  0  0  0  0  0  0  0  0  0  0  0
   -4.5205    0.4206    8.2677 C   0  0  0  0  0  0  0  0  0  0  0  0
   -4.9083   -0.7546    8.7226 N   0  0  0  0  0  0  0  0  0  0  0  0
   -3.8312   -1.5136    8.3175 N   0  0  0  0  0  0  0  0  0  0  0  0
   -4.1848   -2.1708    6.9935 C   0  0  0  0  0  0  0  0  0  0  0  0
   -3.9991   -1.2034    5.7981 C   0  0  0  0  0  0  0  0  0  0  0  0
   -4.6954   -1.6245    4.5184 C   0  0  0  0  0  0  0  0  0  0  0  0
   -6.1849   -1.7960    4.6944 C   0  0  0  0  0  0  0  0  0  0  0  0
   -6.3853   -2.9444    5.6477 C   0  0  0  0  0  0  0  0  0  0  0  0
   -5.6905   -2.6757    6.9762 C   0  0  0  0  0  0  0  0  0  0  0  0
    2.0957   -1.1436   11.2739 C   0  0  0  0  0  0  0  0  0  0  0  0
    2.5202   -0.0196   11.5079 O   0  0  0  0  0  0  0  0  0  0  0  0
    3.3466   -2.6353   11.6270 N   0  0  0  0  0  0  0  0  0  0  0  0
    5.0857   -2.7161   12.3928 N   0  0  0  0  0  0  0  0  0  0  0  0
    6.0188   -1.3671   12.4892 C   0  0  0  0  0  0  0  0  0  0  0  0
    7.1426   -1.3066   13.0629 N   0  0  0  0  0  0  0  0  0  0  0  0
    7.2770   -2.4528   13.7038 C   0  0  0  0  0  0  0  0  0  0  0  0
    8.3590   -2.7351   14.6257 C   0  0  0  0  0  0  0  0  0  0  0  0
    8.3125   -1.8166   15.5575 C   0  0  0  0  0  0  0  0  0  0  0  0
    7.0258   -1.9681   15.9188 C   0  0  0  0  0  0  0  0  0  0  0  0
    5.8260   -2.8476   15.1421 C   0  0  0  0  0  0  0  0  0  0  0  0
    5.9595   -3.0143   13.8300 C   0  0  0  0  0  0  0  0  0  0  0  0
   -0.5721   -1.4006    8.3866 H   0  0  0  0  0  0  0  0  0  0  0  0
   -2.5831    1.2888    7.9295 H   0  0  0  0  0  0  0  0  0  0  0  0
   -5.2391    1.1700    7.9652 H   0  0  0  0  0  0  0  0  0  0  0  0
   -3.5314   -3.0437    6.9378 H   0  0  0  0  0  0  0  0  0  0  0  0
   -2.9369   -1.0573    5.6101 H   0  0  0  0  0  0  0  0  0  0  0  0
   -4.3965   -0.2069    5.9982 H   0  0  0  0  0  0  0  0  0  0  0  0
   -4.2889   -2.5847    4.1915 H   0  0  0  0  0  0  0  0  0  0  0  0
   -4.5084   -0.8648    3.7526 H   0  0  0  0  0  0  0  0  0  0  0  0
   -6.6444   -0.8786    5.0796 H   0  0  0  0  0  0  0  0  0  0  0  0
   -6.6557   -2.0227    3.7316 H   0  0  0  0  0  0  0  0  0  0  0  0
   -6.0069   -3.8669    5.1991 H   0  0  0  0  0  0  0  0  0  0  0  0
   -7.4564   -3.1053    5.8189 H   0  0  0  0  0  0  0  0  0  0  0  0
   -5.7492   -3.6076    7.5163 H   0  0  0  0  0  0  0  0  0  0  0  0
   -6.3529   -1.9791    7.5008 H   0  0  0  0  0  0  0  0  0  0  0  0
    2.9062   -3.4191   11.5002 H   0  0  0  0  0  0  0  0  0  0  0  0
    5.4074   -0.6850   11.9524 H   0  0  0  0  0  0  0  0  0  0  0  0
    8.5958   -3.7244   15.0021 H   0  0  0  0  0  0  0  0  0  0  0  0
    9.0964   -1.4435   16.1854 H   0  0  0  0  0  0  0  0  0  0  0  0
    6.7514   -1.3624   16.7935 H   0  0  0  0  0  0  0  0  0  0  0  0
    4.8572   -3.0104   15.5710 H   0  0  0  0  0  0  0  0  0  0  0  0
  1  2  2  0
  2  3  1  0
  3  4  1  0
  4  5  2  0
  5  6  1  0
  6  7  2  0
  7  8  1  0
  8  9  1  0
  9 10  1  0
 10 11  1  0
 11 12  1  0
 12 13  1  0
 13 14  1  0
  2 15  1  0
 15 16  2  0
 15 17  1  0
 17 18  1  0
 18 19  1  0
 19 20  2  0
 20 21  1  0
 21 22  2  0
 22 23  1  0
 23 24  2  0
 24 25  1  0
 25 26  2  0
  8  4  1  0
 14  9  1  0
 26 18  1  0
 26 21  1  0
  3 27  1  0
  5 28  1  0
  6 29  1  0
  9 30  1  0
 10 31  1  0
 10 32  1  0
 11 33  1  0
 11 34  1  0
 12 35  1  0
 12 36  1  0
 13 37  1  0
 13 38  1  0
 14 39  1  0
 14 40  1  0
 17 41  1  0
 19 42  1  0
 22 43  1  0
 23 44  1  0
 24 45  1  0
 25 46  1  0
M  END
>  <Energy>  (1219) 
889.36503776022971

>  <compound_id>  (1219) 
6654

>  <target_id>  (1219) 
1

>  <reference_id>  (1219) 
127

>  <inspiration_ids>  (1219) 
[127, 103]

>  <energy_score>  (1219) 
778.3461706343018

>  <distance_score>  (1219) 
6.565577970189486

>  <path>  (1219) 
/opt/xchem-fragalysis-2/maxwin/BulkDock/SCRATCH/511018/C6654-P127/C6654-P127.minimised.mol

>  <scratch_subdir>  (1219) 
/opt/xchem-fragalysis-2/maxwin/BulkDock/SCRATCH/511018/C6654-P127

>  <fragmenstein_runtime>  (1219) 
11.035339593887329

>  <fragmenstein_outcome>  (1219) 
too moved

>  <fragmenstein_mode>  (1219) 
expansion

>  <fragmenstein_error>  (1219) 


$$$$
C6654-P103
     RDKit          3D

 46 49  0  0  0  0  0  0  0  0999 V2000
   -0.1351    7.4233   12.4917 O   0  0  0  0  0  0  0  0  0  0  0  0
   -0.3439    6.3171   12.0669 C   0  0  0  0  0  0  0  0  0  0  0  0
   -1.5091    5.7645   11.3655 N   0  0  0  0  0  0  0  0  0  0  0  0
   -2.7480    6.3305   11.0704 C   0  0  0  0  0  0  0  0  0  0  0  0
   -3.2565    7.4633   11.6818 C   0  0  0  0  0  0  0  0  0  0  0  0
   -4.6334    7.4549   11.4350 C   0  0  0  0  0  0  0  0  0  0  0  0
   -4.9889    6.4366   10.6672 N   0  0  0  0  0  0  0  0  0  0  0  0
   -3.8125    5.8781   10.2699 N   0  0  0  0  0  0  0  0  0  0  0  0
   -3.9029    5.0104    9.0793 C   0  0  0  0  0  0  0  0  0  0  0  0
   -2.8541    5.3213    8.0029 C   0  0  0  0  0  0  0  0  0  0  0  0
   -3.4328    5.5971    6.6099 C   0  0  0  0  0  0  0  0  0  0  0  0
   -4.5046    4.6170    6.1259 C   0  0  0  0  0  0  0  0  0  0  0  0
   -5.4577    4.1544    7.2171 C   0  0  0  0  0  0  0  0  0  0  0  0
   -5.3365    5.0174    8.4578 C   0  0  0  0  0  0  0  0  0  0  0  0
    0.7908    5.2677   12.4258 C   0  0  0  0  0  0  0  0  0  0  0  0
    0.5094    4.1116   12.3315 O   0  0  0  0  0  0  0  0  0  0  0  0
    1.9923    5.9116   12.9148 N   0  0  0  0  0  0  0  0  0  0  0  0
    3.1173    5.3895   13.4961 N   0  0  0  0  0  0  0  0  0  0  0  0
    3.2571    5.4052   14.8629 C   0  0  0  0  0  0  0  0  0  0  0  0
    4.5158    5.4187   15.2458 N   0  0  0  0  0  0  0  0  0  0  0  0
    5.2338    5.3385   14.0807 C   0  0  0  0  0  0  0  0  0  0  0  0
    6.6329    5.3522   13.9148 C   0  0  0  0  0  0  0  0  0  0  0  0
    7.1646    5.2316   12.6280 C   0  0  0  0  0  0  0  0  0  0  0  0
    6.3128    5.0918   11.5314 C   0  0  0  0  0  0  0  0  0  0  0  0
    4.9119    5.1203   11.6713 C   0  0  0  0  0  0  0  0  0  0  0  0
    4.3878    5.2666   12.9619 C   0  0  0  0  0  0  0  0  0  0  0  0
   -1.3020    4.8003   11.0770 H   0  0  0  0  0  0  0  0  0  0  0  0
   -2.7219    8.1327   12.3416 H   0  0  0  0  0  0  0  0  0  0  0  0
   -5.3930    8.1286   11.8096 H   0  0  0  0  0  0  0  0  0  0  0  0
   -3.7135    4.0040    9.4444 H   0  0  0  0  0  0  0  0  0  0  0  0
   -2.2321    6.1788    8.2874 H   0  0  0  0  0  0  0  0  0  0  0  0
   -2.1649    4.4736    7.9473 H   0  0  0  0  0  0  0  0  0  0  0  0
   -2.6205    5.6431    5.8750 H   0  0  0  0  0  0  0  0  0  0  0  0
   -3.8714    6.6042    6.6225 H   0  0  0  0  0  0  0  0  0  0  0  0
   -5.0822    5.1163    5.3368 H   0  0  0  0  0  0  0  0  0  0  0  0
   -4.0551    3.7530    5.6329 H   0  0  0  0  0  0  0  0  0  0  0  0
   -5.2793    3.1121    7.4873 H   0  0  0  0  0  0  0  0  0  0  0  0
   -6.4868    4.1903    6.8398 H   0  0  0  0  0  0  0  0  0  0  0  0
   -6.0782    4.6823    9.1831 H   0  0  0  0  0  0  0  0  0  0  0  0
   -5.6264    6.0454    8.1973 H   0  0  0  0  0  0  0  0  0  0  0  0
    1.8490    6.9187   12.9267 H   0  0  0  0  0  0  0  0  0  0  0  0
    2.4037    5.4670   15.5231 H   0  0  0  0  0  0  0  0  0  0  0  0
    7.2737    5.4381   14.7857 H   0  0  0  0  0  0  0  0  0  0  0  0
    8.2415    5.2392   12.4869 H   0  0  0  0  0  0  0  0  0  0  0  0
    6.7367    4.9815   10.5349 H   0  0  0  0  0  0  0  0  0  0  0  0
    4.2622    5.0329   10.8065 H   0  0  0  0  0  0  0  0  0  0  0  0
  1  2  2  0
  2  3  1  0
  3  4  1  0
  4  5  2  0
  5  6  1  0
  6  7  2  0
  7  8  1  0
  8  9  1  0
  9 10  1  0
 10 11  1  0
 11 12  1  0
 12 13  1  0
 13 14  1  0
  2 15  1  0
 15 16  2  0
 15 17  1  0
 17 18  1  0
 18 19  1  0
 19 20  2  0
 20 21  1  0
 21 22  2  0
 22 23  1  0
 23 24  2  0
 24 25  1  0
 25 26  2  0
  8  4  1  0
 14  9  1  0
 26 18  1  0
 26 21  1  0
  3 27  1  0
  5 28  1  0
  6 29  1  0
  9 30  1  0
 10 31  1  0
 10 32  1  0
 11 33  1  0
 11 34  1  0
 12 35  1  0
 12 36  1  0
 13 37  1  0
 13 38  1  0
 14 39  1  0
 14 40  1  0
 17 41  1  0
 19 42  1  0
 22 43  1  0
 23 44  1  0
 24 45  1  0
 25 46  1  0
M  END
>  <Energy>  (1220) 
99.455718490995153

>  <compound_id>  (1220) 
6654

>  <target_id>  (1220) 
1

>  <reference_id>  (1220) 
103

>  <inspiration_ids>  (1220) 
[127, 103]

>  <energy_score>  (1220) 
-11.563148634937647

>  <distance_score>  (1220) 
9.807181139743655

>  <path>  (1220) 
/opt/xchem-fragalysis-2/maxwin/BulkDock/SCRATCH/511018/C6654-P103/C6654-P103.minimised.mol

>  <scratch_subdir>  (1220) 
/opt/xchem-fragalysis-2/maxwin/BulkDock/SCRATCH/511018/C6654-P103

>  <fragmenstein_runtime>  (1220) 
19.09451913833618

>  <fragmenstein_outcome>  (1220) 
too moved

>  <fragmenstein_mode>  (1220) 
expansion

>  <fragmenstein_error>  (1220) 


$$$$
C6655-P127
     RDKit          3D

 48 51  0  0  0  0  0  0  0  0999 V2000
   -0.8182    2.1287   15.3044 C   0  0  0  0  0  0  0  0  0  0  0  0
   -0.4099    1.7219   13.8971 C   0  0  0  0  0  0  0  0  0  0  0  0
   -1.9286    1.7135   12.9493 C   0  0  0  0  0  0  0  0  0  0  0  0
   -2.2554    2.8785   12.6872 O   0  0  0  0  0  0  0  0  0  0  0  0
   -2.8304    0.1102   12.5348 N   0  0  0  0  0  0  0  0  0  0  0  0
   -4.3677   -0.2106   11.5255 C   0  0  0  0  0  0  0  0  0  0  0  0
   -6.0280   -0.3295   11.8683 C   0  0  0  0  0  0  0  0  0  0  0  0
   -6.7285   -0.1103   10.2151 C   0  0  0  0  0  0  0  0  0  0  0  0
   -5.8461   -0.3536    9.2554 N   0  0  0  0  0  0  0  0  0  0  0  0
   -4.4976   -0.3198    9.7714 N   0  0  0  0  0  0  0  0  0  0  0  0
   -3.5953   -0.2655    8.6152 C   0  0  0  0  0  0  0  0  0  0  0  0
   -3.4067   -1.5715    7.8358 C   0  0  0  0  0  0  0  0  0  0  0  0
   -4.5778   -2.0183    6.9537 C   0  0  0  0  0  0  0  0  0  0  0  0
   -5.2776   -0.8828    6.2234 C   0  0  0  0  0  0  0  0  0  0  0  0
   -4.4193    0.3626    6.1894 C   0  0  0  0  0  0  0  0  0  0  0  0
   -3.9844    0.8439    7.5833 C   0  0  0  0  0  0  0  0  0  0  0  0
    0.7062    2.8064   13.6503 N   0  0  0  0  0  0  0  0  0  0  0  0
    0.7800    3.7204   12.6356 C   0  0  0  0  0  0  0  0  0  0  0  0
    1.8997    4.4103   12.6495 N   0  0  0  0  0  0  0  0  0  0  0  0
    2.4848    4.1260   13.8505 C   0  0  0  0  0  0  0  0  0  0  0  0
    3.5808    4.7640   14.4608 C   0  0  0  0  0  0  0  0  0  0  0  0
    3.8780    4.4773   15.7954 C   0  0  0  0  0  0  0  0  0  0  0  0
    3.1569    3.4975   16.4737 C   0  0  0  0  0  0  0  0  0  0  0  0
    2.1551    2.7503   15.8268 C   0  0  0  0  0  0  0  0  0  0  0  0
    1.7773    3.1250   14.5205 C   0  0  0  0  0  0  0  0  0  0  0  0
   -0.6688    3.1937   15.5117 H   0  0  0  0  0  0  0  0  0  0  0  0
   -1.8721    1.9259   15.4076 H   0  0  0  0  0  0  0  0  0  0  0  0
   -0.2939    1.5778   16.0867 H   0  0  0  0  0  0  0  0  0  0  0  0
    0.2419    0.8672   13.7065 H   0  0  0  0  0  0  0  0  0  0  0  0
   -2.2788   -0.6876   12.8010 H   0  0  0  0  0  0  0  0  0  0  0  0
   -6.5548   -0.0345   12.7590 H   0  0  0  0  0  0  0  0  0  0  0  0
   -7.7412    0.2662   10.0367 H   0  0  0  0  0  0  0  0  0  0  0  0
   -2.6418   -0.0296    8.9997 H   0  0  0  0  0  0  0  0  0  0  0  0
   -2.5467   -1.4085    7.1742 H   0  0  0  0  0  0  0  0  0  0  0  0
   -3.0892   -2.3761    8.4897 H   0  0  0  0  0  0  0  0  0  0  0  0
   -4.2003   -2.7392    6.2191 H   0  0  0  0  0  0  0  0  0  0  0  0
   -5.3279   -2.5637    7.5278 H   0  0  0  0  0  0  0  0  0  0  0  0
   -6.2370   -0.6576    6.7019 H   0  0  0  0  0  0  0  0  0  0  0  0
   -5.5223   -1.1978    5.2020 H   0  0  0  0  0  0  0  0  0  0  0  0
   -4.9577    1.1701    5.6795 H   0  0  0  0  0  0  0  0  0  0  0  0
   -3.5404    0.1489    5.5762 H   0  0  0  0  0  0  0  0  0  0  0  0
   -4.7803    1.4942    7.9436 H   0  0  0  0  0  0  0  0  0  0  0  0
   -3.1276    1.5108    7.4685 H   0  0  0  0  0  0  0  0  0  0  0  0
    0.0002    3.8421   11.8940 H   0  0  0  0  0  0  0  0  0  0  0  0
    4.1214    5.5315   13.9199 H   0  0  0  0  0  0  0  0  0  0  0  0
    4.6860    5.0041   16.2927 H   0  0  0  0  0  0  0  0  0  0  0  0
    3.4098    3.2692   17.5050 H   0  0  0  0  0  0  0  0  0  0  0  0
    1.6691    1.9528   16.3720 H   0  0  0  0  0  0  0  0  0  0  0  0
  1  2  1  0
  2  3  1  0
  3  4  2  0
  3  5  1  0
  5  6  1  0
  6  7  2  0
  7  8  1  0
  8  9  2  0
  9 10  1  0
 10 11  1  0
 11 12  1  0
 12 13  1  0
 13 14  1  0
 14 15  1  0
 15 16  1  0
  2 17  1  0
 17 18  1  0
 18 19  2  0
 19 20  1  0
 20 21  2  0
 21 22  1  0
 22 23  2  0
 23 24  1  0
 24 25  2  0
 10  6  1  0
 16 11  1  0
 25 17  1  0
 25 20  1  0
  1 26  1  0
  1 27  1  0
  1 28  1  0
  2 29  1  0
  5 30  1  0
  7 31  1  0
  8 32  1  0
 11 33  1  0
 12 34  1  0
 12 35  1  0
 13 36  1  0
 13 37  1  0
 14 38  1  0
 14 39  1  0
 15 40  1  0
 15 41  1  0
 16 42  1  0
 16 43  1  0
 18 44  1  0
 21 45  1  0
 22 46  1  0
 23 47  1  0
 24 48  1  0
M  END
>  <Energy>  (1221) 
406.49106493780749

>  <compound_id>  (1221) 
6655

>  <target_id>  (1221) 
1

>  <reference_id>  (1221) 
127

>  <inspiration_ids>  (1221) 
[127, 103]

>  <energy_score>  (1221) 
298.8877182781207

>  <distance_score>  (1221) 
8.962564808634836

>  <path>  (1221) 
/opt/xchem-fragalysis-2/maxwin/BulkDock/SCRATCH/511018/C6655-P127/C6655-P127.minimised.mol

>  <scratch_subdir>  (1221) 
/opt/xchem-fragalysis-2/maxwin/BulkDock/SCRATCH/511018/C6655-P127

>  <fragmenstein_runtime>  (1221) 
12.650348663330078

>  <fragmenstein_outcome>  (1221) 
too moved

>  <fragmenstein_mode>  (1221) 
expansion

>  <fragmenstein_error>  (1221) 


$$$$
C6655-P103
     RDKit          3D

 48 51  0  0  0  0  0  0  0  0999 V2000
    5.2289   -2.8010   14.3092 C   0  0  0  0  0  0  0  0  0  0  0  0
    4.6119   -2.8208   12.5169 C   0  0  0  0  0  0  0  0  0  0  0  0
    2.9956   -2.6175   11.2091 C   0  0  0  0  0  0  0  0  0  0  0  0
    3.0218   -3.5238   10.3911 O   0  0  0  0  0  0  0  0  0  0  0  0
    1.5800   -1.2539   11.0810 N   0  0  0  0  0  0  0  0  0  0  0  0
    0.0766   -1.1077    9.9442 C   0  0  0  0  0  0  0  0  0  0  0  0
   -1.6797   -0.7726    9.5621 C   0  0  0  0  0  0  0  0  0  0  0  0
   -2.4606   -2.0418    8.5773 C   0  0  0  0  0  0  0  0  0  0  0  0
   -1.6231   -1.5879    7.7158 N   0  0  0  0  0  0  0  0  0  0  0  0
   -1.5748   -0.7591    8.8464 N   0  0  0  0  0  0  0  0  0  0  0  0
   -3.2843    0.1111    8.5451 C   0  0  0  0  0  0  0  0  0  0  0  0
   -4.5296   -0.3375    9.3662 C   0  0  0  0  0  0  0  0  0  0  0  0
   -6.0201   -0.0895    8.9191 C   0  0  0  0  0  0  0  0  0  0  0  0
   -6.1558    0.8549    7.7632 C   0  0  0  0  0  0  0  0  0  0  0  0
   -5.3418    0.2468    6.6703 C   0  0  0  0  0  0  0  0  0  0  0  0
   -4.0239   -0.4484    7.2075 C   0  0  0  0  0  0  0  0  0  0  0  0
    6.3472   -1.9470   12.6392 N   0  0  0  0  0  0  0  0  0  0  0  0
    6.8610   -1.0481   11.7980 C   0  0  0  0  0  0  0  0  0  0  0  0
    7.7813   -0.2737   12.3011 N   0  0  0  0  0  0  0  0  0  0  0  0
    8.2123   -0.5611   13.5082 C   0  0  0  0  0  0  0  0  0  0  0  0
    9.3048    0.0735   14.1911 C   0  0  0  0  0  0  0  0  0  0  0  0
    9.9850   -0.6246   15.1314 C   0  0  0  0  0  0  0  0  0  0  0  0
    9.5064   -1.8848   15.3283 C   0  0  0  0  0  0  0  0  0  0  0  0
    8.2159   -2.3864   14.8593 C   0  0  0  0  0  0  0  0  0  0  0  0
    7.5228   -1.7491   13.8090 C   0  0  0  0  0  0  0  0  0  0  0  0
    4.8963   -3.4023   15.1607 H   0  0  0  0  0  0  0  0  0  0  0  0
    5.5687   -1.8797   14.6616 H   0  0  0  0  0  0  0  0  0  0  0  0
    6.1895   -3.2689   14.3029 H   0  0  0  0  0  0  0  0  0  0  0  0
    5.0463   -3.6970   12.0314 H   0  0  0  0  0  0  0  0  0  0  0  0
    1.6517   -0.6354   11.8777 H   0  0  0  0  0  0  0  0  0  0  0  0
   -2.3043    0.0272   10.1452 H   0  0  0  0  0  0  0  0  0  0  0  0
   -3.3396   -2.6016    8.3550 H   0  0  0  0  0  0  0  0  0  0  0  0
   -2.9620    1.1484    8.6759 H   0  0  0  0  0  0  0  0  0  0  0  0
   -4.5267   -1.3964    9.3205 H   0  0  0  0  0  0  0  0  0  0  0  0
   -4.3509   -0.1737   10.4011 H   0  0  0  0  0  0  0  0  0  0  0  0
   -6.6822    0.2023    9.7369 H   0  0  0  0  0  0  0  0  0  0  0  0
   -6.4478   -1.0543    8.6077 H   0  0  0  0  0  0  0  0  0  0  0  0
   -5.8073    1.8649    7.9803 H   0  0  0  0  0  0  0  0  0  0  0  0
   -7.2040    0.9468    7.4573 H   0  0  0  0  0  0  0  0  0  0  0  0
   -5.1609    0.9807    5.8792 H   0  0  0  0  0  0  0  0  0  0  0  0
   -5.9744   -0.5191    6.1987 H   0  0  0  0  0  0  0  0  0  0  0  0
   -4.3744   -1.4839    7.3090 H   0  0  0  0  0  0  0  0  0  0  0  0
   -3.2520   -0.5094    6.4562 H   0  0  0  0  0  0  0  0  0  0  0  0
    6.5458   -0.8315   10.8017 H   0  0  0  0  0  0  0  0  0  0  0  0
    9.7708    0.9491   13.7524 H   0  0  0  0  0  0  0  0  0  0  0  0
   10.9474   -0.2953   15.5009 H   0  0  0  0  0  0  0  0  0  0  0  0
   10.2409   -2.5621   15.7662 H   0  0  0  0  0  0  0  0  0  0  0  0
    7.9589   -3.3533   15.2003 H   0  0  0  0  0  0  0  0  0  0  0  0
  1  2  1  0
  2  3  1  0
  3  4  2  0
  3  5  1  0
  5  6  1  0
  6  7  2  0
  7  8  1  0
  8  9  2  0
  9 10  1  0
 10 11  1  0
 11 12  1  0
 12 13  1  0
 13 14  1  0
 14 15  1  0
 15 16  1  0
  2 17  1  0
 17 18  1  0
 18 19  2  0
 19 20  1  0
 20 21  2  0
 21 22  1  0
 22 23  2  0
 23 24  1  0
 24 25  2  0
 10  6  1  0
 16 11  1  0
 25 17  1  0
 25 20  1  0
  1 26  1  0
  1 27  1  0
  1 28  1  0
  2 29  1  0
  5 30  1  0
  7 31  1  0
  8 32  1  0
 11 33  1  0
 12 34  1  0
 12 35  1  0
 13 36  1  0
 13 37  1  0
 14 38  1  0
 14 39  1  0
 15 40  1  0
 15 41  1  0
 16 42  1  0
 16 43  1  0
 18 44  1  0
 21 45  1  0
 22 46  1  0
 23 47  1  0
 24 48  1  0
M  END
>  <Energy>  (1222) 
1468.5297233247716

>  <compound_id>  (1222) 
6655

>  <target_id>  (1222) 
1

>  <reference_id>  (1222) 
103

>  <inspiration_ids>  (1222) 
[127, 103]

>  <energy_score>  (1222) 
1360.9263766651043

>  <distance_score>  (1222) 
6.681357048798057

>  <path>  (1222) 
/opt/xchem-fragalysis-2/maxwin/BulkDock/SCRATCH/511018/C6655-P103/C6655-P103.minimised.mol

>  <scratch_subdir>  (1222) 
/opt/xchem-fragalysis-2/maxwin/BulkDock/SCRATCH/511018/C6655-P103

>  <fragmenstein_runtime>  (1222) 
14.351350784301758

>  <fragmenstein_outcome>  (1222) 
too moved

>  <fragmenstein_mode>  (1222) 
expansion

>  <fragmenstein_error>  (1222) 


$$$$
C6658-P127
     RDKit          3D

 37 40  0  0  0  0  0  0  0  0999 V2000
   -0.1422    1.9831   17.7010 O   0  0  0  0  0  0  0  0  0  0  0  0
    0.7629    1.0840   17.0268 S   0  0  0  0  0  0  0  0  0  0  0  0
    1.7346    1.5978   16.0928 O   0  0  0  0  0  0  0  0  0  0  0  0
   -0.1621   -0.2060   16.3560 N   0  0  0  0  0  0  0  0  0  0  0  0
   -1.1212   -0.1126   15.2598 C   0  0  0  0  0  0  0  0  0  0  0  0
   -1.8386   -1.2261   14.8901 C   0  0  0  0  0  0  0  0  0  0  0  0
   -2.7001   -1.3194   13.6765 C   0  0  0  0  0  0  0  0  0  0  0  0
   -3.1873   -0.3337   12.6291 C   0  0  0  0  0  0  0  0  0  0  0  0
   -4.0483   -0.4252   10.8248 N   0  0  0  0  0  0  0  0  0  0  0  0
   -3.6599   -1.3273    9.4229 C   0  0  0  0  0  0  0  0  0  0  0  0
   -4.6822   -1.5631    8.6189 N   0  0  0  0  0  0  0  0  0  0  0  0
   -5.3317   -0.4256    8.7109 C   0  0  0  0  0  0  0  0  0  0  0  0
   -6.2797    0.0238    7.7832 C   0  0  0  0  0  0  0  0  0  0  0  0
   -5.9516    1.1806    7.0921 C   0  0  0  0  0  0  0  0  0  0  0  0
   -4.7168    1.7764    7.3208 C   0  0  0  0  0  0  0  0  0  0  0  0
   -3.8425    1.3422    8.3511 C   0  0  0  0  0  0  0  0  0  0  0  0
   -4.3304    0.3630    9.3007 C   0  0  0  0  0  0  0  0  0  0  0  0
   -2.1837    0.7341   13.1722 C   0  0  0  0  0  0  0  0  0  0  0  0
   -1.2702    0.8728   14.3444 C   0  0  0  0  0  0  0  0  0  0  0  0
    1.6804    0.4951   18.3721 C   0  0  0  0  0  0  0  0  0  0  0  0
    2.5350    1.2791   19.1794 C   0  0  0  0  0  0  0  0  0  0  0  0
    3.1949    0.5448   20.0889 N   0  0  0  0  0  0  0  0  0  0  0  0
    2.7062   -0.6929   19.8987 N   0  0  0  0  0  0  0  0  0  0  0  0
    1.7705   -0.7743   18.9038 C   0  0  0  0  0  0  0  0  0  0  0  0
   -0.5225   -0.7823   17.1144 H   0  0  0  0  0  0  0  0  0  0  0  0
   -1.6925   -2.1514   15.4507 H   0  0  0  0  0  0  0  0  0  0  0  0
   -2.7630   -2.4117   13.6351 H   0  0  0  0  0  0  0  0  0  0  0  0
   -2.6185   -1.5529    9.2228 H   0  0  0  0  0  0  0  0  0  0  0  0
   -7.0639   -0.6321    7.4205 H   0  0  0  0  0  0  0  0  0  0  0  0
   -6.5957    1.5381    6.2941 H   0  0  0  0  0  0  0  0  0  0  0  0
   -4.4269    2.6281    6.7161 H   0  0  0  0  0  0  0  0  0  0  0  0
   -2.9196    1.8762    8.3942 H   0  0  0  0  0  0  0  0  0  0  0  0
   -2.0084    1.7102   12.7205 H   0  0  0  0  0  0  0  0  0  0  0  0
   -0.6930    1.7936   14.4309 H   0  0  0  0  0  0  0  0  0  0  0  0
    2.7307    2.3421   19.1072 H   0  0  0  0  0  0  0  0  0  0  0  0
    3.0425   -1.4367   20.5012 H   0  0  0  0  0  0  0  0  0  0  0  0
    1.3045   -1.7127   18.6455 H   0  0  0  0  0  0  0  0  0  0  0  0
  1  2  2  0
  2  3  2  0
  2  4  1  0
  4  5  1  0
  5  6  2  0
  6  7  1  0
  7  8  2  0
  8  9  1  0
  9 10  1  0
 10 11  2  0
 11 12  1  0
 12 13  2  0
 13 14  1  0
 14 15  2  0
 15 16  1  0
 16 17  2  0
  8 18  1  0
 18 19  2  0
  2 20  1  0
 20 21  1  0
 21 22  2  0
 22 23  1  0
 23 24  1  0
 19  5  1  0
 24 20  2  0
 17  9  1  0
 17 12  1  0
  4 25  1  0
  6 26  1  0
  7 27  1  0
 10 28  1  0
 13 29  1  0
 14 30  1  0
 15 31  1  0
 16 32  1  0
 18 33  1  0
 19 34  1  0
 21 35  1  0
 23 36  1  0
 24 37  1  0
M  END
>  <Energy>  (1223) 
443.16395420783061

>  <compound_id>  (1223) 
6658

>  <target_id>  (1223) 
1

>  <reference_id>  (1223) 
127

>  <inspiration_ids>  (1223) 
[127, 103]

>  <energy_score>  (1223) 
383.0559215259712

>  <distance_score>  (1223) 
9.786399725496873

>  <path>  (1223) 
/opt/xchem-fragalysis-2/maxwin/BulkDock/SCRATCH/511018/C6658-P127/C6658-P127.minimised.mol

>  <scratch_subdir>  (1223) 
/opt/xchem-fragalysis-2/maxwin/BulkDock/SCRATCH/511018/C6658-P127

>  <fragmenstein_runtime>  (1223) 
11.067949771881104

>  <fragmenstein_outcome>  (1223) 
too moved

>  <fragmenstein_mode>  (1223) 
expansion

>  <fragmenstein_error>  (1223) 


$$$$
C6658-P103
     RDKit          3D

 37 40  0  0  0  0  0  0  0  0999 V2000
    5.2374   -0.0432   12.4305 O   0  0  0  0  0  0  0  0  0  0  0  0
    4.3709   -0.4226   11.2418 S   0  0  0  0  0  0  0  0  0  0  0  0
    4.3965    0.6702   10.2587 O   0  0  0  0  0  0  0  0  0  0  0  0
    1.9671   -0.9148   11.2290 N   0  0  0  0  0  0  0  0  0  0  0  0
    0.2880   -0.9014   10.0136 C   0  0  0  0  0  0  0  0  0  0  0  0
   -1.5026   -0.9647    9.7531 C   0  0  0  0  0  0  0  0  0  0  0  0
   -3.0581   -1.4976    8.8251 C   0  0  0  0  0  0  0  0  0  0  0  0
   -3.8253   -0.5102    8.3757 C   0  0  0  0  0  0  0  0  0  0  0  0
   -5.1290   -0.5321    7.8240 N   0  0  0  0  0  0  0  0  0  0  0  0
   -5.7308   -1.7029    7.3979 C   0  0  0  0  0  0  0  0  0  0  0  0
   -6.9712   -1.5653    7.0127 N   0  0  0  0  0  0  0  0  0  0  0  0
   -7.1987   -0.2294    7.0719 C   0  0  0  0  0  0  0  0  0  0  0  0
   -8.3786    0.4433    6.7128 C   0  0  0  0  0  0  0  0  0  0  0  0
   -8.4223    1.8326    6.7781 C   0  0  0  0  0  0  0  0  0  0  0  0
   -7.3031    2.5384    7.1927 C   0  0  0  0  0  0  0  0  0  0  0  0
   -6.1203    1.8791    7.5617 C   0  0  0  0  0  0  0  0  0  0  0  0
   -6.0645    0.4726    7.5155 C   0  0  0  0  0  0  0  0  0  0  0  0
   -2.9281    0.3970    8.7028 C   0  0  0  0  0  0  0  0  0  0  0  0
   -1.3977   -0.3606    9.1717 C   0  0  0  0  0  0  0  0  0  0  0  0
    6.1017   -1.5652   12.2363 C   0  0  0  0  0  0  0  0  0  0  0  0
    6.1288   -2.3385   13.6756 C   0  0  0  0  0  0  0  0  0  0  0  0
    7.1577   -2.1725   14.4907 N   0  0  0  0  0  0  0  0  0  0  0  0
    7.8753   -1.3998   13.7373 N   0  0  0  0  0  0  0  0  0  0  0  0
    7.3319   -1.0521   12.4884 C   0  0  0  0  0  0  0  0  0  0  0  0
    1.7019   -0.5745   12.1741 H   0  0  0  0  0  0  0  0  0  0  0  0
   -1.2336   -1.2705   11.0717 H   0  0  0  0  0  0  0  0  0  0  0  0
   -3.0828   -2.5198    8.4664 H   0  0  0  0  0  0  0  0  0  0  0  0
   -5.2006   -2.6439    7.3665 H   0  0  0  0  0  0  0  0  0  0  0  0
   -9.2386   -0.1303    6.3809 H   0  0  0  0  0  0  0  0  0  0  0  0
   -9.3335    2.3571    6.5044 H   0  0  0  0  0  0  0  0  0  0  0  0
   -7.3495    3.6246    7.2502 H   0  0  0  0  0  0  0  0  0  0  0  0
   -5.3068    2.5013    7.8991 H   0  0  0  0  0  0  0  0  0  0  0  0
   -3.1031    1.4336    8.9197 H   0  0  0  0  0  0  0  0  0  0  0  0
   -1.4904   -0.9549    7.9067 H   0  0  0  0  0  0  0  0  0  0  0  0
    5.2957   -2.7532   14.2010 H   0  0  0  0  0  0  0  0  0  0  0  0
    8.8365   -1.2051   14.0011 H   0  0  0  0  0  0  0  0  0  0  0  0
    7.8198   -0.2900   11.9893 H   0  0  0  0  0  0  0  0  0  0  0  0
  1  2  2  0
  2  3  2  0
  2  4  1  0
  4  5  1  0
  5  6  2  0
  6  7  1  0
  7  8  2  0
  8  9  1  0
  9 10  1  0
 10 11  2  0
 11 12  1  0
 12 13  2  0
 13 14  1  0
 14 15  2  0
 15 16  1  0
 16 17  2  0
  8 18  1  0
 18 19  2  0
  2 20  1  0
 20 21  1  0
 21 22  2  0
 22 23  1  0
 23 24  1  0
 19  5  1  0
 24 20  2  0
 17  9  1  0
 17 12  1  0
  4 25  1  0
  6 26  1  0
  7 27  1  0
 10 28  1  0
 13 29  1  0
 14 30  1  0
 15 31  1  0
 16 32  1  0
 18 33  1  0
 19 34  1  0
 21 35  1  0
 23 36  1  0
 24 37  1  0
M  END
>  <Energy>  (1224) 
1490.2268825315143

>  <compound_id>  (1224) 
6658

>  <target_id>  (1224) 
1

>  <reference_id>  (1224) 
103

>  <inspiration_ids>  (1224) 
[127, 103]

>  <energy_score>  (1224) 
1430.1188498496533

>  <distance_score>  (1224) 
6.6691334872783585

>  <path>  (1224) 
/opt/xchem-fragalysis-2/maxwin/BulkDock/SCRATCH/511018/C6658-P103/C6658-P103.minimised.mol

>  <scratch_subdir>  (1224) 
/opt/xchem-fragalysis-2/maxwin/BulkDock/SCRATCH/511018/C6658-P103

>  <fragmenstein_runtime>  (1224) 
13.000429391860962

>  <fragmenstein_outcome>  (1224) 
too moved

>  <fragmenstein_mode>  (1224) 
expansion

>  <fragmenstein_error>  (1224) 


$$$$
C6248-P103
     RDKit          2D

  0  0  0  0  0  0  0  0  0  0999 V2000
M  END
>  <compound_id>  (1225) 
6248

>  <target_id>  (1225) 
1

>  <reference_id>  (1225) 
103

>  <inspiration_ids>  (1225) 
[127, 103]

>  <energy_score>  (1225) 
nan

>  <distance_score>  (1225) 
nan

>  <path>  (1225) 
/opt/xchem-fragalysis-2/maxwin/BulkDock/SCRATCH/511018/C6248-P103/C6248-P103.minimised.mol

>  <scratch_subdir>  (1225) 
/opt/xchem-fragalysis-2/maxwin/BulkDock/SCRATCH/511018/C6248-P103

>  <fragmenstein_runtime>  (1225) 
0.508591890335083

>  <fragmenstein_outcome>  (1225) 
too distant

>  <fragmenstein_mode>  (1225) 
expansion

>  <fragmenstein_error>  (1225) 
DistanceError: hit1

$$$$
C6669-P127
     RDKit          3D

 36 39  0  0  0  0  0  0  0  0999 V2000
    1.9673   -0.3400   12.0555 O   0  0  0  0  0  0  0  0  0  0  0  0
    1.9905   -1.2289   11.2151 C   0  0  0  0  0  0  0  0  0  0  0  0
    3.4572   -2.5412   11.2664 N   0  0  0  0  0  0  0  0  0  0  0  0
    5.0830   -2.6793   12.3769 N   0  0  0  0  0  0  0  0  0  0  0  0
    6.3765   -1.5009   12.3553 C   0  0  0  0  0  0  0  0  0  0  0  0
    7.2296   -1.2796   13.2759 N   0  0  0  0  0  0  0  0  0  0  0  0
    7.3896   -2.4545   13.7901 C   0  0  0  0  0  0  0  0  0  0  0  0
    8.4688   -2.7133   14.7311 C   0  0  0  0  0  0  0  0  0  0  0  0
    8.3365   -1.8661   15.7291 C   0  0  0  0  0  0  0  0  0  0  0  0
    7.0314   -1.9235   15.9957 C   0  0  0  0  0  0  0  0  0  0  0  0
    5.8703   -2.7555   15.1718 C   0  0  0  0  0  0  0  0  0  0  0  0
    6.0348   -2.8510   13.8617 C   0  0  0  0  0  0  0  0  0  0  0  0
    0.2700   -1.1263   10.0329 C   0  0  0  0  0  0  0  0  0  0  0  0
    0.4065   -1.8908    8.9992 C   0  0  0  0  0  0  0  0  0  0  0  0
   -1.1251   -1.5748    7.6243 C   0  0  0  0  0  0  0  0  0  0  0  0
   -2.4314   -1.7486    7.3767 C   0  0  0  0  0  0  0  0  0  0  0  0
   -2.6322   -2.0682    8.5881 C   0  0  0  0  0  0  0  0  0  0  0  0
   -1.6619   -1.2240    9.4678 C   0  0  0  0  0  0  0  0  0  0  0  0
   -2.9487   -0.0224    9.0974 N   0  0  0  0  0  0  0  0  0  0  0  0
   -3.1407    0.8353    7.9594 C   0  0  0  0  0  0  0  0  0  0  0  0
   -4.4428    0.8413    7.5282 C   0  0  0  0  0  0  0  0  0  0  0  0
   -5.0826    0.0225    8.4343 C   0  0  0  0  0  0  0  0  0  0  0  0
   -4.2757   -0.3568    9.4291 N   0  0  0  0  0  0  0  0  0  0  0  0
    3.3827   -3.1372   10.4768 H   0  0  0  0  0  0  0  0  0  0  0  0
    6.6351   -1.0361   11.4120 H   0  0  0  0  0  0  0  0  0  0  0  0
    9.5103   -2.8208   14.4251 H   0  0  0  0  0  0  0  0  0  0  0  0
    9.1108   -1.3645   16.2724 H   0  0  0  0  0  0  0  0  0  0  0  0
    6.7327   -1.2919   16.8463 H   0  0  0  0  0  0  0  0  0  0  0  0
    4.8802   -2.8981   15.5575 H   0  0  0  0  0  0  0  0  0  0  0  0
    1.3964   -2.0031    8.4719 H   0  0  0  0  0  0  0  0  0  0  0  0
   -0.6898   -1.3203    6.6237 H   0  0  0  0  0  0  0  0  0  0  0  0
   -3.0837   -1.6354    6.5426 H   0  0  0  0  0  0  0  0  0  0  0  0
   -3.6750   -2.1593    8.7520 H   0  0  0  0  0  0  0  0  0  0  0  0
   -2.3217    1.3233    7.5176 H   0  0  0  0  0  0  0  0  0  0  0  0
   -4.8493    1.3560    6.6706 H   0  0  0  0  0  0  0  0  0  0  0  0
   -6.1262   -0.2653    8.4723 H   0  0  0  0  0  0  0  0  0  0  0  0
  1  2  2  0
  2  3  1  0
  3  4  1  0
  4  5  1  0
  5  6  2  0
  6  7  1  0
  7  8  2  0
  8  9  1  0
  9 10  2  0
 10 11  1  0
 11 12  2  0
  2 13  1  0
 13 14  2  0
 14 15  1  0
 15 16  2  0
 16 17  1  0
 17 18  2  0
 18 19  1  0
 19 20  1  0
 20 21  2  0
 21 22  1  0
 22 23  2  0
 12  4  1  0
 18 13  1  0
 23 19  1  0
 12  7  1  0
  3 24  1  0
  5 25  1  0
  8 26  1  0
  9 27  1  0
 10 28  1  0
 11 29  1  0
 14 30  1  0
 15 31  1  0
 16 32  1  0
 17 33  1  0
 20 34  1  0
 21 35  1  0
 22 36  1  0
M  END
>  <Energy>  (1226) 
1320.6873346730436

>  <compound_id>  (1226) 
6669

>  <target_id>  (1226) 
1

>  <reference_id>  (1226) 
127

>  <inspiration_ids>  (1226) 
[127, 103]

>  <energy_score>  (1226) 
1239.3525505998682

>  <distance_score>  (1226) 
7.021515649232599

>  <path>  (1226) 
/opt/xchem-fragalysis-2/maxwin/BulkDock/SCRATCH/511018/C6669-P127/C6669-P127.minimised.mol

>  <scratch_subdir>  (1226) 
/opt/xchem-fragalysis-2/maxwin/BulkDock/SCRATCH/511018/C6669-P127

>  <fragmenstein_runtime>  (1226) 
8.079203128814697

>  <fragmenstein_outcome>  (1226) 
too moved

>  <fragmenstein_mode>  (1226) 
expansion

>  <fragmenstein_error>  (1226) 


$$$$
C6669-P103
     RDKit          3D

 36 39  0  0  0  0  0  0  0  0999 V2000
    1.0780   -1.7989   10.1341 O   0  0  0  0  0  0  0  0  0  0  0  0
    0.8967   -0.6814    9.9735 C   0  0  0  0  0  0  0  0  0  0  0  0
    2.6752    0.3245   10.3782 N   0  0  0  0  0  0  0  0  0  0  0  0
    4.5055   -0.3135   11.0979 N   0  0  0  0  0  0  0  0  0  0  0  0
    6.2029   -0.6139   10.6479 C   0  0  0  0  0  0  0  0  0  0  0  0
    6.9499   -1.6031   11.2810 N   0  0  0  0  0  0  0  0  0  0  0  0
    6.2897   -1.8841   12.4805 C   0  0  0  0  0  0  0  0  0  0  0  0
    6.6320   -2.3312   13.8730 C   0  0  0  0  0  0  0  0  0  0  0  0
    7.6934   -1.8687   14.6281 C   0  0  0  0  0  0  0  0  0  0  0  0
    8.2955   -0.8244   14.0536 C   0  0  0  0  0  0  0  0  0  0  0  0
    7.5745   -0.3825   12.8283 C   0  0  0  0  0  0  0  0  0  0  0  0
    5.8401   -0.5766   12.4153 C   0  0  0  0  0  0  0  0  0  0  0  0
   -1.2455   -0.4272    9.2803 C   0  0  0  0  0  0  0  0  0  0  0  0
   -1.9607   -1.4720    8.4582 C   0  0  0  0  0  0  0  0  0  0  0  0
   -3.2874   -1.9570    8.1293 C   0  0  0  0  0  0  0  0  0  0  0  0
   -4.3673   -1.1855    8.2303 C   0  0  0  0  0  0  0  0  0  0  0  0
   -4.0281    0.0706    8.5570 C   0  0  0  0  0  0  0  0  0  0  0  0
   -2.6199    0.6261    8.8255 C   0  0  0  0  0  0  0  0  0  0  0  0
   -3.1267    2.3420    8.5584 N   0  0  0  0  0  0  0  0  0  0  0  0
   -2.4870    3.6780    8.3789 C   0  0  0  0  0  0  0  0  0  0  0  0
   -3.4496    4.6534    8.2939 C   0  0  0  0  0  0  0  0  0  0  0  0
   -4.6326    3.9726    8.0674 C   0  0  0  0  0  0  0  0  0  0  0  0
   -4.4558    2.6537    7.9863 N   0  0  0  0  0  0  0  0  0  0  0  0
    2.5448    1.3066   10.1531 H   0  0  0  0  0  0  0  0  0  0  0  0
    6.4957    0.0980    9.9091 H   0  0  0  0  0  0  0  0  0  0  0  0
    5.8619   -2.8334   14.4423 H   0  0  0  0  0  0  0  0  0  0  0  0
    7.9637   -2.2587   15.5755 H   0  0  0  0  0  0  0  0  0  0  0  0
    9.2550   -0.4169   14.3427 H   0  0  0  0  0  0  0  0  0  0  0  0
    8.2388    0.1088   12.1537 H   0  0  0  0  0  0  0  0  0  0  0  0
   -1.4638   -1.5984    7.4953 H   0  0  0  0  0  0  0  0  0  0  0  0
   -3.3982   -2.9667    7.7344 H   0  0  0  0  0  0  0  0  0  0  0  0
   -5.3689   -1.4859    7.9594 H   0  0  0  0  0  0  0  0  0  0  0  0
   -4.9141    0.6879    8.4679 H   0  0  0  0  0  0  0  0  0  0  0  0
   -1.4123    3.7715    8.4043 H   0  0  0  0  0  0  0  0  0  0  0  0
   -3.2840    5.7215    8.2806 H   0  0  0  0  0  0  0  0  0  0  0  0
   -5.6183    4.3794    7.8742 H   0  0  0  0  0  0  0  0  0  0  0  0
  1  2  2  0
  2  3  1  0
  3  4  1  0
  4  5  1  0
  5  6  2  0
  6  7  1  0
  7  8  2  0
  8  9  1  0
  9 10  2  0
 10 11  1  0
 11 12  2  0
  2 13  1  0
 13 14  2  0
 14 15  1  0
 15 16  2  0
 16 17  1  0
 17 18  2  0
 18 19  1  0
 19 20  1  0
 20 21  2  0
 21 22  1  0
 22 23  2  0
 12  4  1  0
 18 13  1  0
 23 19  1  0
 12  7  1  0
  3 24  1  0
  5 25  1  0
  8 26  1  0
  9 27  1  0
 10 28  1  0
 11 29  1  0
 14 30  1  0
 15 31  1  0
 16 32  1  0
 17 33  1  0
 20 34  1  0
 21 35  1  0
 22 36  1  0
M  END
>  <Energy>  (1227) 
1404.7370907598849

>  <compound_id>  (1227) 
6669

>  <target_id>  (1227) 
1

>  <reference_id>  (1227) 
103

>  <inspiration_ids>  (1227) 
[127, 103]

>  <energy_score>  (1227) 
1323.4023066867169

>  <distance_score>  (1227) 
7.371227122048144

>  <path>  (1227) 
/opt/xchem-fragalysis-2/maxwin/BulkDock/SCRATCH/511018/C6669-P103/C6669-P103.minimised.mol

>  <scratch_subdir>  (1227) 
/opt/xchem-fragalysis-2/maxwin/BulkDock/SCRATCH/511018/C6669-P103

>  <fragmenstein_runtime>  (1227) 
9.895724058151245

>  <fragmenstein_outcome>  (1227) 
too moved

>  <fragmenstein_mode>  (1227) 
expansion

>  <fragmenstein_error>  (1227) 


$$$$
C6672-P127
     RDKit          3D

 36 39  0  0  0  0  0  0  0  0999 V2000
    3.3572   -3.1928   11.6706 O   0  0  0  0  0  0  0  0  0  0  0  0
    3.3088   -2.0402   11.3849 C   0  0  0  0  0  0  0  0  0  0  0  0
    4.8471   -0.9382   11.7956 N   0  0  0  0  0  0  0  0  0  0  0  0
    6.4667   -1.3396   12.7285 N   0  0  0  0  0  0  0  0  0  0  0  0
    6.4043   -2.3502   13.7496 C   0  0  0  0  0  0  0  0  0  0  0  0
    7.1308   -2.4430   14.8245 N   0  0  0  0  0  0  0  0  0  0  0  0
    8.1749   -1.6577   14.6296 C   0  0  0  0  0  0  0  0  0  0  0  0
    9.2778   -1.4952   15.5140 C   0  0  0  0  0  0  0  0  0  0  0  0
   10.3783   -0.6838   15.2991 C   0  0  0  0  0  0  0  0  0  0  0  0
   10.4260    0.0134   14.1337 C   0  0  0  0  0  0  0  0  0  0  0  0
    9.3251   -0.0509   13.2482 C   0  0  0  0  0  0  0  0  0  0  0  0
    7.9567   -0.8321   13.4182 C   0  0  0  0  0  0  0  0  0  0  0  0
    1.5169   -1.4285   10.4994 C   0  0  0  0  0  0  0  0  0  0  0  0
   -0.1519   -1.0217   10.5799 C   0  0  0  0  0  0  0  0  0  0  0  0
   -1.8347   -1.1611    9.4826 C   0  0  0  0  0  0  0  0  0  0  0  0
   -2.4405   -1.4589    8.4110 C   0  0  0  0  0  0  0  0  0  0  0  0
   -3.6115   -1.2628    7.7073 N   0  0  0  0  0  0  0  0  0  0  0  0
   -4.7687   -0.6794    8.1816 C   0  0  0  0  0  0  0  0  0  0  0  0
   -5.7066   -0.7143    7.1819 C   0  0  0  0  0  0  0  0  0  0  0  0
   -5.0192   -1.2889    6.1072 C   0  0  0  0  0  0  0  0  0  0  0  0
   -3.7452   -1.5696    6.3995 N   0  0  0  0  0  0  0  0  0  0  0  0
   -1.1662   -1.6149    8.4248 C   0  0  0  0  0  0  0  0  0  0  0  0
    0.6887   -1.7758    9.2609 C   0  0  0  0  0  0  0  0  0  0  0  0
    4.6930    0.0060   11.4152 H   0  0  0  0  0  0  0  0  0  0  0  0
    5.6563   -3.0682   13.5971 H   0  0  0  0  0  0  0  0  0  0  0  0
    9.2710   -2.0632   16.4191 H   0  0  0  0  0  0  0  0  0  0  0  0
   11.1970   -0.6496   16.0095 H   0  0  0  0  0  0  0  0  0  0  0  0
   11.3053    0.5917   13.8646 H   0  0  0  0  0  0  0  0  0  0  0  0
    9.5583    0.4159   12.3239 H   0  0  0  0  0  0  0  0  0  0  0  0
   -0.5165   -0.6463   11.5868 H   0  0  0  0  0  0  0  0  0  0  0  0
   -2.7090   -0.4355    9.7643 H   0  0  0  0  0  0  0  0  0  0  0  0
   -4.8250   -0.3126    9.1867 H   0  0  0  0  0  0  0  0  0  0  0  0
   -6.7314   -0.3734    7.2240 H   0  0  0  0  0  0  0  0  0  0  0  0
   -5.3864   -1.5033    5.1116 H   0  0  0  0  0  0  0  0  0  0  0  0
   -1.1228   -1.5422    7.2231 H   0  0  0  0  0  0  0  0  0  0  0  0
    1.4070   -2.0482    8.4015 H   0  0  0  0  0  0  0  0  0  0  0  0
  1  2  2  0
  2  3  1  0
  3  4  1  0
  4  5  1  0
  5  6  2  0
  6  7  1  0
  7  8  2  0
  8  9  1  0
  9 10  2  0
 10 11  1  0
 11 12  2  0
  2 13  1  0
 13 14  2  0
 14 15  1  0
 15 16  2  0
 16 17  1  0
 17 18  1  0
 18 19  2  0
 19 20  1  0
 20 21  2  0
 16 22  1  0
 22 23  2  0
 12  4  1  0
 23 13  1  0
 12  7  1  0
 21 17  1  0
  3 24  1  0
  5 25  1  0
  8 26  1  0
  9 27  1  0
 10 28  1  0
 11 29  1  0
 14 30  1  0
 15 31  1  0
 18 32  1  0
 19 33  1  0
 20 34  1  0
 22 35  1  0
 23 36  1  0
M  END
>  <Energy>  (1228) 
966.50868045857931

>  <compound_id>  (1228) 
6672

>  <target_id>  (1228) 
1

>  <reference_id>  (1228) 
127

>  <inspiration_ids>  (1228) 
[127, 103]

>  <energy_score>  (1228) 
889.6055407133367

>  <distance_score>  (1228) 
6.676212585366025

>  <path>  (1228) 
/opt/xchem-fragalysis-2/maxwin/BulkDock/SCRATCH/511018/C6672-P127/C6672-P127.minimised.mol

>  <scratch_subdir>  (1228) 
/opt/xchem-fragalysis-2/maxwin/BulkDock/SCRATCH/511018/C6672-P127

>  <fragmenstein_runtime>  (1228) 
6.857637405395508

>  <fragmenstein_outcome>  (1228) 
too moved

>  <fragmenstein_mode>  (1228) 
expansion

>  <fragmenstein_error>  (1228) 


$$$$
C6672-P103
     RDKit          3D

 36 39  0  0  0  0  0  0  0  0999 V2000
    0.8008   -1.5850   10.5655 O   0  0  0  0  0  0  0  0  0  0  0  0
    0.6109   -0.6521    9.9503 C   0  0  0  0  0  0  0  0  0  0  0  0
    2.1251    0.4987    9.7793 N   0  0  0  0  0  0  0  0  0  0  0  0
    3.8724    0.4338   10.5641 N   0  0  0  0  0  0  0  0  0  0  0  0
    4.7559    1.2520    9.6675 C   0  0  0  0  0  0  0  0  0  0  0  0
    6.0562    0.8471    9.5756 N   0  0  0  0  0  0  0  0  0  0  0  0
    6.4017   -0.4755   10.7193 C   0  0  0  0  0  0  0  0  0  0  0  0
    7.4419   -0.6709   11.8829 C   0  0  0  0  0  0  0  0  0  0  0  0
    7.4928   -1.2771   13.1844 C   0  0  0  0  0  0  0  0  0  0  0  0
    6.5855   -2.1233   13.4930 C   0  0  0  0  0  0  0  0  0  0  0  0
    5.7516   -2.0669   12.4203 C   0  0  0  0  0  0  0  0  0  0  0  0
    5.0916   -0.6424   11.4200 C   0  0  0  0  0  0  0  0  0  0  0  0
   -1.4280   -0.6452    9.2377 C   0  0  0  0  0  0  0  0  0  0  0  0
   -2.4692    0.2886    8.8768 C   0  0  0  0  0  0  0  0  0  0  0  0
   -3.9447    0.1727    8.5815 C   0  0  0  0  0  0  0  0  0  0  0  0
   -4.5294   -0.9702    8.1980 C   0  0  0  0  0  0  0  0  0  0  0  0
   -5.8858   -1.0740    7.7999 N   0  0  0  0  0  0  0  0  0  0  0  0
   -6.9039   -0.1727    8.0442 C   0  0  0  0  0  0  0  0  0  0  0  0
   -8.0544   -0.7037    7.5120 C   0  0  0  0  0  0  0  0  0  0  0  0
   -7.6431   -1.9121    6.9323 C   0  0  0  0  0  0  0  0  0  0  0  0
   -6.3327   -2.1291    7.0760 N   0  0  0  0  0  0  0  0  0  0  0  0
   -3.5677   -1.8926    8.0193 C   0  0  0  0  0  0  0  0  0  0  0  0
   -2.1561   -1.5944    8.3928 C   0  0  0  0  0  0  0  0  0  0  0  0
    1.8858    1.2526    9.1513 H   0  0  0  0  0  0  0  0  0  0  0  0
    4.2934    2.0211    9.0714 H   0  0  0  0  0  0  0  0  0  0  0  0
    8.2630    0.0278   11.9962 H   0  0  0  0  0  0  0  0  0  0  0  0
    8.2662   -1.0246   13.9183 H   0  0  0  0  0  0  0  0  0  0  0  0
    6.5313   -2.7373   14.3651 H   0  0  0  0  0  0  0  0  0  0  0  0
    4.9418   -2.8651   12.4527 H   0  0  0  0  0  0  0  0  0  0  0  0
   -2.2263    1.3087    8.6733 H   0  0  0  0  0  0  0  0  0  0  0  0
   -4.5102    1.0692    8.4061 H   0  0  0  0  0  0  0  0  0  0  0  0
   -6.7489    0.7296    8.6121 H   0  0  0  0  0  0  0  0  0  0  0  0
   -9.0524   -0.2907    7.5514 H   0  0  0  0  0  0  0  0  0  0  0  0
   -8.2435   -2.6478    6.4101 H   0  0  0  0  0  0  0  0  0  0  0  0
   -3.8024   -2.8371    7.5278 H   0  0  0  0  0  0  0  0  0  0  0  0
   -1.5948   -1.8038    7.5004 H   0  0  0  0  0  0  0  0  0  0  0  0
  1  2  2  0
  2  3  1  0
  3  4  1  0
  4  5  1  0
  5  6  2  0
  6  7  1  0
  7  8  2  0
  8  9  1  0
  9 10  2  0
 10 11  1  0
 11 12  2  0
  2 13  1  0
 13 14  2  0
 14 15  1  0
 15 16  2  0
 16 17  1  0
 17 18  1  0
 18 19  2  0
 19 20  1  0
 20 21  2  0
 16 22  1  0
 22 23  2  0
 12  4  1  0
 23 13  1  0
 12  7  1  0
 21 17  1  0
  3 24  1  0
  5 25  1  0
  8 26  1  0
  9 27  1  0
 10 28  1  0
 11 29  1  0
 14 30  1  0
 15 31  1  0
 18 32  1  0
 19 33  1  0
 20 34  1  0
 22 35  1  0
 23 36  1  0
M  END
>  <Energy>  (1229) 
821.67759980646565

>  <compound_id>  (1229) 
6672

>  <target_id>  (1229) 
1

>  <reference_id>  (1229) 
103

>  <inspiration_ids>  (1229) 
[127, 103]

>  <energy_score>  (1229) 
744.7744600612218

>  <distance_score>  (1229) 
7.238950561423421

>  <path>  (1229) 
/opt/xchem-fragalysis-2/maxwin/BulkDock/SCRATCH/511018/C6672-P103/C6672-P103.minimised.mol

>  <scratch_subdir>  (1229) 
/opt/xchem-fragalysis-2/maxwin/BulkDock/SCRATCH/511018/C6672-P103

>  <fragmenstein_runtime>  (1229) 
6.315049171447754

>  <fragmenstein_outcome>  (1229) 
too moved

>  <fragmenstein_mode>  (1229) 
expansion

>  <fragmenstein_error>  (1229) 


$$$$
C6679-P111
     RDKit          3D

 36 37  0  0  0  0  0  0  0  0999 V2000
   18.1945   -1.5846   15.1707 C   0  0  0  0  0  0  0  0  0  0  0  0
   17.2456   -0.4225   15.4563 C   0  0  0  0  0  0  0  0  0  0  0  0
   16.4735    0.0047   14.1899 C   0  0  0  0  0  0  0  0  0  0  0  0
   16.2994   -0.7374   16.5289 N   0  0  0  0  0  0  0  0  0  0  0  0
   15.4989   -1.8144   16.3813 N   0  0  0  0  0  0  0  0  0  0  0  0
   14.3381   -1.3204   16.8244 C   0  0  0  0  0  0  0  0  0  0  0  0
   13.0445   -1.7326   16.2832 C   0  0  0  0  0  0  0  0  0  0  0  0
   12.6913   -3.0227   15.9603 C   0  0  0  0  0  0  0  0  0  0  0  0
   11.2665   -2.9934   15.0203 S   0  0  0  0  0  0  0  0  0  0  0  0
   11.1913   -1.2934   15.1787 C   0  0  0  0  0  0  0  0  0  0  0  0
   12.1434   -0.7446   15.8974 N   0  0  0  0  0  0  0  0  0  0  0  0
   14.4624   -0.1678   17.5478 N   0  0  0  0  0  0  0  0  0  0  0  0
   15.7256    0.1695   17.3923 C   0  0  0  0  0  0  0  0  0  0  0  0
   16.4099    1.3858   17.8765 C   0  0  0  0  0  0  0  0  0  0  0  0
   15.5951    2.0784   19.3048 S   0  0  0  0  0  0  0  0  0  0  0  0
   16.5767    2.9423   19.9427 O   0  0  0  0  0  0  0  0  0  0  0  0
   14.3169    2.6351   18.9006 O   0  0  0  0  0  0  0  0  0  0  0  0
   15.3099    0.7059   20.4033 C   0  0  0  0  0  0  0  0  0  0  0  0
   14.6672    1.1705   21.6887 C   0  0  0  0  0  0  0  0  0  0  0  0
   14.4403    0.0468   22.5398 O   0  0  0  0  0  0  0  0  0  0  0  0
   18.9454   -1.2948   14.4282 H   0  0  0  0  0  0  0  0  0  0  0  0
   17.6607   -2.4594   14.7833 H   0  0  0  0  0  0  0  0  0  0  0  0
   18.7198   -1.8915   16.0817 H   0  0  0  0  0  0  0  0  0  0  0  0
   17.8452    0.4263   15.8047 H   0  0  0  0  0  0  0  0  0  0  0  0
   15.8650   -0.8152   13.7925 H   0  0  0  0  0  0  0  0  0  0  0  0
   15.8057    0.8469   14.4012 H   0  0  0  0  0  0  0  0  0  0  0  0
   17.1720    0.3163   13.4063 H   0  0  0  0  0  0  0  0  0  0  0  0
   13.2318   -3.9370   16.1582 H   0  0  0  0  0  0  0  0  0  0  0  0
   10.4012   -0.7157   14.7143 H   0  0  0  0  0  0  0  0  0  0  0  0
   16.4277    2.1636   17.1074 H   0  0  0  0  0  0  0  0  0  0  0  0
   17.4373    1.1582   18.1786 H   0  0  0  0  0  0  0  0  0  0  0  0
   14.6544   -0.0250   19.9294 H   0  0  0  0  0  0  0  0  0  0  0  0
   16.2712    0.2212   20.6007 H   0  0  0  0  0  0  0  0  0  0  0  0
   15.3211    1.8658   22.2242 H   0  0  0  0  0  0  0  0  0  0  0  0
   13.7127    1.6778   21.5157 H   0  0  0  0  0  0  0  0  0  0  0  0
   13.6101   -0.3937   22.2586 H   0  0  0  0  0  0  0  0  0  0  0  0
  1  2  1  0
  2  3  1  0
  2  4  1  0
  4  5  1  0
  5  6  2  0
  6  7  1  0
  7  8  2  0
  8  9  1  0
  9 10  1  0
 10 11  2  0
  6 12  1  0
 12 13  2  0
 13 14  1  0
 14 15  1  0
 15 16  2  0
 15 17  2  0
 15 18  1  0
 18 19  1  0
 19 20  1  0
 13  4  1  0
 11  7  1  0
  1 21  1  0
  1 22  1  0
  1 23  1  0
  2 24  1  0
  3 25  1  0
  3 26  1  0
  3 27  1  0
  8 28  1  0
 10 29  1  0
 14 30  1  0
 14 31  1  0
 18 32  1  0
 18 33  1  0
 19 34  1  0
 19 35  1  0
 20 36  1  0
M  END
>  <Energy>  (1230) 
63.294796985930567

>  <compound_id>  (1230) 
6679

>  <target_id>  (1230) 
1

>  <reference_id>  (1230) 
111

>  <inspiration_ids>  (1230) 
[111, 71]

>  <energy_score>  (1230) 
-77.08289156743996

>  <distance_score>  (1230) 
1.297971319379604

>  <path>  (1230) 
/opt/xchem-fragalysis-2/maxwin/BulkDock/SCRATCH/511018/C6679-P111/C6679-P111.minimised.mol

>  <scratch_subdir>  (1230) 
/opt/xchem-fragalysis-2/maxwin/BulkDock/SCRATCH/511018/C6679-P111

>  <fragmenstein_runtime>  (1230) 
3.6661763191223145

>  <fragmenstein_outcome>  (1230) 
too moved

>  <fragmenstein_mode>  (1230) 
expansion

>  <fragmenstein_error>  (1230) 


$$$$
C6679-P71
     RDKit          3D

 36 37  0  0  0  0  0  0  0  0999 V2000
   18.1509   -1.7541   15.1005 C   0  0  0  0  0  0  0  0  0  0  0  0
   17.2645   -0.5473   15.4038 C   0  0  0  0  0  0  0  0  0  0  0  0
   16.4576   -0.1107   14.1621 C   0  0  0  0  0  0  0  0  0  0  0  0
   16.3528   -0.8003   16.5232 N   0  0  0  0  0  0  0  0  0  0  0  0
   15.5315   -1.8665   16.4503 N   0  0  0  0  0  0  0  0  0  0  0  0
   14.3866   -1.3220   16.8781 C   0  0  0  0  0  0  0  0  0  0  0  0
   13.0860   -1.7297   16.3448 C   0  0  0  0  0  0  0  0  0  0  0  0
   12.7425   -3.0190   16.0027 C   0  0  0  0  0  0  0  0  0  0  0  0
   11.3211   -2.9901   15.0587 S   0  0  0  0  0  0  0  0  0  0  0  0
   11.2357   -1.2916   15.2350 C   0  0  0  0  0  0  0  0  0  0  0  0
   12.1848   -0.7433   15.9586 N   0  0  0  0  0  0  0  0  0  0  0  0
   14.5495   -0.1361   17.5446 N   0  0  0  0  0  0  0  0  0  0  0  0
   15.8191    0.1582   17.3583 C   0  0  0  0  0  0  0  0  0  0  0  0
   16.5563    1.3741   17.7504 C   0  0  0  0  0  0  0  0  0  0  0  0
   15.8727    2.1916   19.1737 S   0  0  0  0  0  0  0  0  0  0  0  0
   16.9872    2.8980   19.7895 O   0  0  0  0  0  0  0  0  0  0  0  0
   14.6965    2.9447   18.7785 O   0  0  0  0  0  0  0  0  0  0  0  0
   15.3635    0.9311   20.3289 C   0  0  0  0  0  0  0  0  0  0  0  0
   14.8493    1.5826   21.5979 C   0  0  0  0  0  0  0  0  0  0  0  0
   13.5294    2.0965   21.4357 O   0  0  0  0  0  0  0  0  0  0  0  0
   18.8821   -1.5085   14.3232 H   0  0  0  0  0  0  0  0  0  0  0  0
   17.5652   -2.6111   14.7499 H   0  0  0  0  0  0  0  0  0  0  0  0
   18.6999   -2.0688   15.9947 H   0  0  0  0  0  0  0  0  0  0  0  0
   17.9151    0.2800   15.7090 H   0  0  0  0  0  0  0  0  0  0  0  0
   15.7947   -0.9094   13.8114 H   0  0  0  0  0  0  0  0  0  0  0  0
   15.8395    0.7665   14.3820 H   0  0  0  0  0  0  0  0  0  0  0  0
   17.1343    0.1506   13.3419 H   0  0  0  0  0  0  0  0  0  0  0  0
   13.2919   -3.9312   16.1847 H   0  0  0  0  0  0  0  0  0  0  0  0
   10.4440   -0.7147   14.7729 H   0  0  0  0  0  0  0  0  0  0  0  0
   16.5702    2.1060   16.9371 H   0  0  0  0  0  0  0  0  0  0  0  0
   17.5898    1.1189   18.0089 H   0  0  0  0  0  0  0  0  0  0  0  0
   14.5714    0.3313   19.8822 H   0  0  0  0  0  0  0  0  0  0  0  0
   16.2426    0.3146   20.5363 H   0  0  0  0  0  0  0  0  0  0  0  0
   14.7951    0.8326   22.3933 H   0  0  0  0  0  0  0  0  0  0  0  0
   15.4948    2.3928   21.9503 H   0  0  0  0  0  0  0  0  0  0  0  0
   13.5184    2.6953   20.6593 H   0  0  0  0  0  0  0  0  0  0  0  0
  1  2  1  0
  2  3  1  0
  2  4  1  0
  4  5  1  0
  5  6  2  0
  6  7  1  0
  7  8  2  0
  8  9  1  0
  9 10  1  0
 10 11  2  0
  6 12  1  0
 12 13  2  0
 13 14  1  0
 14 15  1  0
 15 16  2  0
 15 17  2  0
 15 18  1  0
 18 19  1  0
 19 20  1  0
 13  4  1  0
 11  7  1  0
  1 21  1  0
  1 22  1  0
  1 23  1  0
  2 24  1  0
  3 25  1  0
  3 26  1  0
  3 27  1  0
  8 28  1  0
 10 29  1  0
 14 30  1  0
 14 31  1  0
 18 32  1  0
 18 33  1  0
 19 34  1  0
 19 35  1  0
 20 36  1  0
M  END
>  <Energy>  (1231) 
64.809646342266475

>  <compound_id>  (1231) 
6679

>  <target_id>  (1231) 
1

>  <reference_id>  (1231) 
71

>  <inspiration_ids>  (1231) 
[111, 71]

>  <energy_score>  (1231) 
-75.56804221110347

>  <distance_score>  (1231) 
1.3001623558535302

>  <path>  (1231) 
/opt/xchem-fragalysis-2/maxwin/BulkDock/SCRATCH/511018/C6679-P71/C6679-P71.minimised.mol

>  <scratch_subdir>  (1231) 
/opt/xchem-fragalysis-2/maxwin/BulkDock/SCRATCH/511018/C6679-P71

>  <fragmenstein_runtime>  (1231) 
3.6904759407043457

>  <fragmenstein_outcome>  (1231) 
too moved

>  <fragmenstein_mode>  (1231) 
expansion

>  <fragmenstein_error>  (1231) 


$$$$
C6682-P111
     RDKit          3D

 28 29  0  0  0  0  0  0  0  0999 V2000
   14.3305    0.1996   18.9230 O   0  0  0  0  0  0  0  0  0  0  0  0
   14.2329    0.2260   17.4761 S   0  0  0  0  0  0  0  0  0  0  0  0
   12.9946    0.7057   16.8852 O   0  0  0  0  0  0  0  0  0  0  0  0
   14.6017   -1.4339   16.8619 C   0  0  0  0  0  0  0  0  0  0  0  0
   13.4950   -1.9239   16.0110 C   0  0  0  0  0  0  0  0  0  0  0  0
   12.6064   -2.9411   16.2960 C   0  0  0  0  0  0  0  0  0  0  0  0
   11.3705   -2.9646   15.1143 S   0  0  0  0  0  0  0  0  0  0  0  0
   12.1437   -1.6882   14.2900 C   0  0  0  0  0  0  0  0  0  0  0  0
   13.2796   -1.2776   14.8046 N   0  0  0  0  0  0  0  0  0  0  0  0
   15.4914    1.2619   16.7737 C   0  0  0  0  0  0  0  0  0  0  0  0
   16.7141    1.4666   17.6303 C   0  0  0  0  0  0  0  0  0  0  0  0
   16.4129    2.3351   18.7185 O   0  0  0  0  0  0  0  0  0  0  0  0
   17.3351    0.1786   18.0576 C   0  0  0  0  0  0  0  0  0  0  0  0
   17.2743   -0.3470   19.3914 C   0  0  0  0  0  0  0  0  0  0  0  0
   17.8663   -1.5818   19.4898 C   0  0  0  0  0  0  0  0  0  0  0  0
   18.5059   -2.1108   17.9931 S   0  0  0  0  0  0  0  0  0  0  0  0
   17.9739   -0.6927   17.1920 C   0  0  0  0  0  0  0  0  0  0  0  0
   14.7715   -2.0780   17.7295 H   0  0  0  0  0  0  0  0  0  0  0  0
   15.5168   -1.3954   16.2699 H   0  0  0  0  0  0  0  0  0  0  0  0
   12.5829   -3.6051   17.1494 H   0  0  0  0  0  0  0  0  0  0  0  0
   11.7238   -1.2548   13.3954 H   0  0  0  0  0  0  0  0  0  0  0  0
   15.0098    2.2317   16.5968 H   0  0  0  0  0  0  0  0  0  0  0  0
   15.7401    0.8453   15.7917 H   0  0  0  0  0  0  0  0  0  0  0  0
   17.4524    2.0113   17.0275 H   0  0  0  0  0  0  0  0  0  0  0  0
   17.2023    2.3805   19.2850 H   0  0  0  0  0  0  0  0  0  0  0  0
   16.7859    0.1406   20.2298 H   0  0  0  0  0  0  0  0  0  0  0  0
   17.9518   -2.2060   20.3694 H   0  0  0  0  0  0  0  0  0  0  0  0
   18.1661   -0.5723   16.1335 H   0  0  0  0  0  0  0  0  0  0  0  0
  1  2  2  0
  2  3  2  0
  2  4  1  0
  4  5  1  0
  5  6  2  0
  6  7  1  0
  7  8  1  0
  8  9  2  0
  2 10  1  0
 10 11  1  0
 11 12  1  0
 11 13  1  0
 13 14  1  0
 14 15  2  0
 15 16  1  0
 16 17  1  0
  9  5  1  0
 17 13  2  0
  4 18  1  0
  4 19  1  0
  6 20  1  0
  8 21  1  0
 10 22  1  0
 10 23  1  0
 11 24  1  0
 12 25  1  0
 14 26  1  0
 15 27  1  0
 17 28  1  0
M  END
>  <Energy>  (1232) 
23.421152354477954

>  <compound_id>  (1232) 
6682

>  <target_id>  (1232) 
1

>  <reference_id>  (1232) 
111

>  <inspiration_ids>  (1232) 
[111, 71]

>  <energy_score>  (1232) 
-66.7961693988208

>  <distance_score>  (1232) 
2.081711768361177

>  <path>  (1232) 
/opt/xchem-fragalysis-2/maxwin/BulkDock/SCRATCH/511018/C6682-P111/C6682-P111.minimised.mol

>  <scratch_subdir>  (1232) 
/opt/xchem-fragalysis-2/maxwin/BulkDock/SCRATCH/511018/C6682-P111

>  <fragmenstein_runtime>  (1232) 
2.775926351547241

>  <fragmenstein_outcome>  (1232) 
too moved

>  <fragmenstein_mode>  (1232) 
expansion

>  <fragmenstein_error>  (1232) 


$$$$
C6682-P71
     RDKit          3D

 28 29  0  0  0  0  0  0  0  0999 V2000
   14.2307   -2.0655   19.0019 O   0  0  0  0  0  0  0  0  0  0  0  0
   14.5979   -0.9605   18.1309 S   0  0  0  0  0  0  0  0  0  0  0  0
   13.6782    0.1409   17.8929 O   0  0  0  0  0  0  0  0  0  0  0  0
   15.0219   -1.7066   16.5648 C   0  0  0  0  0  0  0  0  0  0  0  0
   13.7522   -1.9787   15.8316 C   0  0  0  0  0  0  0  0  0  0  0  0
   12.8639   -3.0126   16.0676 C   0  0  0  0  0  0  0  0  0  0  0  0
   11.4729   -2.8190   15.0927 S   0  0  0  0  0  0  0  0  0  0  0  0
   12.1484   -1.3980   14.4247 C   0  0  0  0  0  0  0  0  0  0  0  0
   13.3426   -1.0690   14.8668 N   0  0  0  0  0  0  0  0  0  0  0  0
   16.0428   -0.2682   18.8618 C   0  0  0  0  0  0  0  0  0  0  0  0
   16.3120    1.1774   18.4842 C   0  0  0  0  0  0  0  0  0  0  0  0
   15.2586    2.0811   18.7602 O   0  0  0  0  0  0  0  0  0  0  0  0
   16.8555    1.2699   17.1065 C   0  0  0  0  0  0  0  0  0  0  0  0
   18.2243    0.9555   16.8708 C   0  0  0  0  0  0  0  0  0  0  0  0
   18.5287    0.9747   15.5379 C   0  0  0  0  0  0  0  0  0  0  0  0
   17.2010    1.4413   14.5658 S   0  0  0  0  0  0  0  0  0  0  0  0
   16.1816    1.5684   15.9329 C   0  0  0  0  0  0  0  0  0  0  0  0
   15.5787   -2.6264   16.7648 H   0  0  0  0  0  0  0  0  0  0  0  0
   15.6538   -1.0307   15.9956 H   0  0  0  0  0  0  0  0  0  0  0  0
   12.9395   -3.8235   16.7796 H   0  0  0  0  0  0  0  0  0  0  0  0
   11.6193   -0.8136   13.6827 H   0  0  0  0  0  0  0  0  0  0  0  0
   16.8814   -0.9403   18.6527 H   0  0  0  0  0  0  0  0  0  0  0  0
   15.8527   -0.3077   19.9421 H   0  0  0  0  0  0  0  0  0  0  0  0
   17.1163    1.5125   19.1540 H   0  0  0  0  0  0  0  0  0  0  0  0
   14.4396    1.7462   18.3348 H   0  0  0  0  0  0  0  0  0  0  0  0
   18.9512    0.7001   17.6336 H   0  0  0  0  0  0  0  0  0  0  0  0
   19.4813    0.7641   15.0709 H   0  0  0  0  0  0  0  0  0  0  0  0
   15.1398    1.8406   15.8113 H   0  0  0  0  0  0  0  0  0  0  0  0
  1  2  2  0
  2  3  2  0
  2  4  1  0
  4  5  1  0
  5  6  2  0
  6  7  1  0
  7  8  1  0
  8  9  2  0
  2 10  1  0
 10 11  1  0
 11 12  1  0
 11 13  1  0
 13 14  1  0
 14 15  2  0
 15 16  1  0
 16 17  1  0
  9  5  1  0
 17 13  2  0
  4 18  1  0
  4 19  1  0
  6 20  1  0
  8 21  1  0
 10 22  1  0
 10 23  1  0
 11 24  1  0
 12 25  1  0
 14 26  1  0
 15 27  1  0
 17 28  1  0
M  END
>  <Energy>  (1233) 
18.427998594181101

>  <compound_id>  (1233) 
6682

>  <target_id>  (1233) 
1

>  <reference_id>  (1233) 
71

>  <inspiration_ids>  (1233) 
[111, 71]

>  <energy_score>  (1233) 
-71.78932315911784

>  <distance_score>  (1233) 
2.297654591509371

>  <path>  (1233) 
/opt/xchem-fragalysis-2/maxwin/BulkDock/SCRATCH/511018/C6682-P71/C6682-P71.minimised.mol

>  <scratch_subdir>  (1233) 
/opt/xchem-fragalysis-2/maxwin/BulkDock/SCRATCH/511018/C6682-P71

>  <fragmenstein_runtime>  (1233) 
2.6221439838409424

>  <fragmenstein_outcome>  (1233) 
too moved

>  <fragmenstein_mode>  (1233) 
expansion

>  <fragmenstein_error>  (1233) 


$$$$
C6683-P111
     RDKit          3D

 33 34  0  0  0  0  0  0  0  0999 V2000
   14.7813    2.9054   13.3712 O   0  0  0  0  0  0  0  0  0  0  0  0
   15.7552    2.2570   13.7780 N   0  0  0  0  0  0  0  0  0  0  0  0
   16.5227    1.6085   13.0527 O   0  0  0  0  0  0  0  0  0  0  0  0
   16.0078    2.2562   15.2359 C   0  0  0  0  0  0  0  0  0  0  0  0
   15.1572    2.9907   16.0804 C   0  0  0  0  0  0  0  0  0  0  0  0
   15.2990    2.8881   17.4682 C   0  0  0  0  0  0  0  0  0  0  0  0
   16.2803    2.0550   17.9947 C   0  0  0  0  0  0  0  0  0  0  0  0
   16.2378    1.8653   19.3387 O   0  0  0  0  0  0  0  0  0  0  0  0
   16.1372    0.4731   19.6516 C   0  0  0  0  0  0  0  0  0  0  0  0
   14.8867   -0.1772   19.0814 C   0  0  0  0  0  0  0  0  0  0  0  0
   15.1811   -1.4935   17.9274 S   0  0  0  0  0  0  0  0  0  0  0  0
   16.6085   -1.7412   17.8346 O   0  0  0  0  0  0  0  0  0  0  0  0
   14.2929   -2.5646   18.3202 O   0  0  0  0  0  0  0  0  0  0  0  0
   14.6303   -0.9164   16.3479 C   0  0  0  0  0  0  0  0  0  0  0  0
   13.2911   -1.3850   15.9081 C   0  0  0  0  0  0  0  0  0  0  0  0
   12.8584   -2.6911   15.7726 C   0  0  0  0  0  0  0  0  0  0  0  0
   11.3188   -2.7279   15.0428 S   0  0  0  0  0  0  0  0  0  0  0  0
   11.3227   -1.0192   14.9740 C   0  0  0  0  0  0  0  0  0  0  0  0
   12.3754   -0.4247   15.4937 N   0  0  0  0  0  0  0  0  0  0  0  0
   17.1870    1.3880   17.1706 C   0  0  0  0  0  0  0  0  0  0  0  0
   17.0405    1.4705   15.7835 C   0  0  0  0  0  0  0  0  0  0  0  0
   14.3595    3.6117   15.6766 H   0  0  0  0  0  0  0  0  0  0  0  0
   14.6175    3.4201   18.1282 H   0  0  0  0  0  0  0  0  0  0  0  0
   16.0461    0.4498   20.7452 H   0  0  0  0  0  0  0  0  0  0  0  0
   17.0785   -0.0462   19.4485 H   0  0  0  0  0  0  0  0  0  0  0  0
   14.1677    0.5218   18.6476 H   0  0  0  0  0  0  0  0  0  0  0  0
   14.3644   -0.6632   19.9156 H   0  0  0  0  0  0  0  0  0  0  0  0
   14.6263    0.1692   16.3865 H   0  0  0  0  0  0  0  0  0  0  0  0
   15.3799   -1.2239   15.6108 H   0  0  0  0  0  0  0  0  0  0  0  0
   13.3724   -3.6058   16.0370 H   0  0  0  0  0  0  0  0  0  0  0  0
   10.4996   -0.4719   14.5309 H   0  0  0  0  0  0  0  0  0  0  0  0
   17.9854    0.7759   17.5842 H   0  0  0  0  0  0  0  0  0  0  0  0
   17.7201    0.9115   15.1418 H   0  0  0  0  0  0  0  0  0  0  0  0
  1  2  2  0
  2  3  1  0
  2  4  1  0
  4  5  2  0
  5  6  1  0
  6  7  2  0
  7  8  1  0
  8  9  1  0
  9 10  1  0
 10 11  1  0
 11 12  2  0
 11 13  2  0
 11 14  1  0
 14 15  1  0
 15 16  2  0
 16 17  1  0
 17 18  1  0
 18 19  2  0
  7 20  1  0
 20 21  2  0
 21  4  1  0
 19 15  1  0
  5 22  1  0
  6 23  1  0
  9 24  1  0
  9 25  1  0
 10 26  1  0
 10 27  1  0
 14 28  1  0
 14 29  1  0
 16 30  1  0
 18 31  1  0
 20 32  1  0
 21 33  1  0
M  CHG  2   2   1   3  -1
M  END
>  <Energy>  (1234) 
74.521295890264128

>  <compound_id>  (1234) 
6683

>  <target_id>  (1234) 
1

>  <reference_id>  (1234) 
111

>  <inspiration_ids>  (1234) 
[111, 71]

>  <energy_score>  (1234) 
-64.76807898872207

>  <distance_score>  (1234) 
2.16129359611604

>  <path>  (1234) 
/opt/xchem-fragalysis-2/maxwin/BulkDock/SCRATCH/511018/C6683-P111/C6683-P111.minimised.mol

>  <scratch_subdir>  (1234) 
/opt/xchem-fragalysis-2/maxwin/BulkDock/SCRATCH/511018/C6683-P111

>  <fragmenstein_runtime>  (1234) 
3.2604613304138184

>  <fragmenstein_outcome>  (1234) 
too moved

>  <fragmenstein_mode>  (1234) 
expansion

>  <fragmenstein_error>  (1234) 


$$$$
C6683-P71
     RDKit          3D

 33 34  0  0  0  0  0  0  0  0999 V2000
   14.4721    2.9671   13.4412 O   0  0  0  0  0  0  0  0  0  0  0  0
   15.4765    2.3497   13.8190 N   0  0  0  0  0  0  0  0  0  0  0  0
   16.2949    1.8064   13.0612 O   0  0  0  0  0  0  0  0  0  0  0  0
   15.7148    2.2743   15.2759 C   0  0  0  0  0  0  0  0  0  0  0  0
   14.7587    2.7823   16.1744 C   0  0  0  0  0  0  0  0  0  0  0  0
   14.9312    2.5985   17.5556 C   0  0  0  0  0  0  0  0  0  0  0  0
   16.0523    1.9170   18.0196 C   0  0  0  0  0  0  0  0  0  0  0  0
   16.0698    1.6202   19.3431 O   0  0  0  0  0  0  0  0  0  0  0  0
   16.4869    0.2798   19.6012 C   0  0  0  0  0  0  0  0  0  0  0  0
   15.3547   -0.7148   19.4796 C   0  0  0  0  0  0  0  0  0  0  0  0
   15.1464   -1.5198   17.9102 S   0  0  0  0  0  0  0  0  0  0  0  0
   14.6781   -2.8608   18.2140 O   0  0  0  0  0  0  0  0  0  0  0  0
   16.3369   -1.3344   17.1098 O   0  0  0  0  0  0  0  0  0  0  0  0
   13.8708   -0.6148   17.1113 C   0  0  0  0  0  0  0  0  0  0  0  0
   12.8687   -1.3400   16.3040 C   0  0  0  0  0  0  0  0  0  0  0  0
   12.8431   -2.6469   15.8622 C   0  0  0  0  0  0  0  0  0  0  0  0
   11.4677   -2.9036   14.8844 S   0  0  0  0  0  0  0  0  0  0  0  0
   11.0166   -1.2713   15.0965 C   0  0  0  0  0  0  0  0  0  0  0  0
   11.7912   -0.5665   15.8873 N   0  0  0  0  0  0  0  0  0  0  0  0
   17.0606    1.5250   17.1399 C   0  0  0  0  0  0  0  0  0  0  0  0
   16.8767    1.6616   15.7646 C   0  0  0  0  0  0  0  0  0  0  0  0
   13.8562    3.2756   15.8168 H   0  0  0  0  0  0  0  0  0  0  0  0
   14.1656    2.9438   18.2476 H   0  0  0  0  0  0  0  0  0  0  0  0
   16.7746    0.2979   20.6606 H   0  0  0  0  0  0  0  0  0  0  0  0
   17.4006   -0.0334   19.0887 H   0  0  0  0  0  0  0  0  0  0  0  0
   14.3954   -0.2850   19.7811 H   0  0  0  0  0  0  0  0  0  0  0  0
   15.5614   -1.5386   20.1752 H   0  0  0  0  0  0  0  0  0  0  0  0
   14.3699    0.0774   16.4353 H   0  0  0  0  0  0  0  0  0  0  0  0
   13.3573   -0.0201   17.8683 H   0  0  0  0  0  0  0  0  0  0  0  0
   13.5474   -3.4477   16.0408 H   0  0  0  0  0  0  0  0  0  0  0  0
   10.1371   -0.8487   14.6274 H   0  0  0  0  0  0  0  0  0  0  0  0
   17.9828    1.0644   17.4819 H   0  0  0  0  0  0  0  0  0  0  0  0
   17.6394    1.2809   15.0875 H   0  0  0  0  0  0  0  0  0  0  0  0
  1  2  2  0
  2  3  1  0
  2  4  1  0
  4  5  2  0
  5  6  1  0
  6  7  2  0
  7  8  1  0
  8  9  1  0
  9 10  1  0
 10 11  1  0
 11 12  2  0
 11 13  2  0
 11 14  1  0
 14 15  1  0
 15 16  2  0
 16 17  1  0
 17 18  1  0
 18 19  2  0
  7 20  1  0
 20 21  2  0
 21  4  1  0
 19 15  1  0
  5 22  1  0
  6 23  1  0
  9 24  1  0
  9 25  1  0
 10 26  1  0
 10 27  1  0
 14 28  1  0
 14 29  1  0
 16 30  1  0
 18 31  1  0
 20 32  1  0
 21 33  1  0
M  CHG  2   2   1   3  -1
M  END
>  <Energy>  (1235) 
73.333566917214952

>  <compound_id>  (1235) 
6683

>  <target_id>  (1235) 
1

>  <reference_id>  (1235) 
71

>  <inspiration_ids>  (1235) 
[111, 71]

>  <energy_score>  (1235) 
-65.95580796177146

>  <distance_score>  (1235) 
2.2022622620733254

>  <path>  (1235) 
/opt/xchem-fragalysis-2/maxwin/BulkDock/SCRATCH/511018/C6683-P71/C6683-P71.minimised.mol

>  <scratch_subdir>  (1235) 
/opt/xchem-fragalysis-2/maxwin/BulkDock/SCRATCH/511018/C6683-P71

>  <fragmenstein_runtime>  (1235) 
3.227374315261841

>  <fragmenstein_outcome>  (1235) 
too moved

>  <fragmenstein_mode>  (1235) 
expansion

>  <fragmenstein_error>  (1235) 


$$$$
C6684-P111
     RDKit          3D

 34 35  0  0  0  0  0  0  0  0999 V2000
   18.3034   -0.1274   19.5666 O   0  0  0  0  0  0  0  0  0  0  0  0
   17.1908   -1.0580   19.6880 S   0  0  0  0  0  0  0  0  0  0  0  0
   17.4194   -2.3303   20.3515 O   0  0  0  0  0  0  0  0  0  0  0  0
   15.8849   -0.2327   20.5764 C   0  0  0  0  0  0  0  0  0  0  0  0
   15.4732    1.0530   19.9574 C   0  0  0  0  0  0  0  0  0  0  0  0
   15.4690    2.2899   20.5736 C   0  0  0  0  0  0  0  0  0  0  0  0
   14.9896    3.5038   19.4606 S   0  0  0  0  0  0  0  0  0  0  0  0
   14.7973    2.2979   18.2593 C   0  0  0  0  0  0  0  0  0  0  0  0
   15.0189    1.0620   18.6467 N   0  0  0  0  0  0  0  0  0  0  0  0
   16.5949   -1.3814   18.0481 C   0  0  0  0  0  0  0  0  0  0  0  0
   15.2430   -2.1006   17.9824 C   0  0  0  0  0  0  0  0  0  0  0  0
   15.3841   -3.4824   18.2486 O   0  0  0  0  0  0  0  0  0  0  0  0
   14.6363   -1.9788   16.6036 C   0  0  0  0  0  0  0  0  0  0  0  0
   15.4695   -1.9850   15.4900 C   0  0  0  0  0  0  0  0  0  0  0  0
   15.1024   -1.2269   14.4017 C   0  0  0  0  0  0  0  0  0  0  0  0
   13.8827   -0.5533   14.4279 C   0  0  0  0  0  0  0  0  0  0  0  0
   13.7282    0.6925   13.6178 C   0  0  0  0  0  0  0  0  0  0  0  0
   12.9060    1.5926   14.2279 F   0  0  0  0  0  0  0  0  0  0  0  0
   13.2471    0.4673   12.3792 F   0  0  0  0  0  0  0  0  0  0  0  0
   14.9058    1.3596   13.4399 F   0  0  0  0  0  0  0  0  0  0  0  0
   12.8984   -0.9263   15.3429 C   0  0  0  0  0  0  0  0  0  0  0  0
   13.2851   -1.6624   16.4461 C   0  0  0  0  0  0  0  0  0  0  0  0
   15.0371   -0.9161   20.6670 H   0  0  0  0  0  0  0  0  0  0  0  0
   16.2724   -0.0646   21.5880 H   0  0  0  0  0  0  0  0  0  0  0  0
   15.7472    2.5423   21.5877 H   0  0  0  0  0  0  0  0  0  0  0  0
   14.4860    2.5464   17.2527 H   0  0  0  0  0  0  0  0  0  0  0  0
   16.5873   -0.4207   17.5247 H   0  0  0  0  0  0  0  0  0  0  0  0
   17.3829   -1.9965   17.5950 H   0  0  0  0  0  0  0  0  0  0  0  0
   14.5424   -1.6951   18.7145 H   0  0  0  0  0  0  0  0  0  0  0  0
   14.7141   -3.9650   17.7347 H   0  0  0  0  0  0  0  0  0  0  0  0
   16.4827   -2.3792   15.5332 H   0  0  0  0  0  0  0  0  0  0  0  0
   15.8345   -1.0255   13.6206 H   0  0  0  0  0  0  0  0  0  0  0  0
   11.9011   -0.4944   15.2967 H   0  0  0  0  0  0  0  0  0  0  0  0
   12.5844   -1.8188   17.2517 H   0  0  0  0  0  0  0  0  0  0  0  0
  1  2  2  0
  2  3  2  0
  2  4  1  0
  4  5  1  0
  5  6  2  0
  6  7  1  0
  7  8  1  0
  8  9  2  0
  2 10  1  0
 10 11  1  0
 11 12  1  0
 11 13  1  0
 13 14  2  0
 14 15  1  0
 15 16  2  0
 16 17  1  0
 17 18  1  0
 17 19  1  0
 17 20  1  0
 16 21  1  0
 21 22  2  0
  9  5  1  0
 22 13  1  0
  4 23  1  0
  4 24  1  0
  6 25  1  0
  8 26  1  0
 10 27  1  0
 10 28  1  0
 11 29  1  0
 12 30  1  0
 14 31  1  0
 15 32  1  0
 21 33  1  0
 22 34  1  0
M  END
>  <Energy>  (1236) 
77.230262873842705

>  <compound_id>  (1236) 
6684

>  <target_id>  (1236) 
1

>  <reference_id>  (1236) 
111

>  <inspiration_ids>  (1236) 
[111, 71]

>  <energy_score>  (1236) 
-30.370701272698

>  <distance_score>  (1236) 
1.670794186307497

>  <path>  (1236) 
/opt/xchem-fragalysis-2/maxwin/BulkDock/SCRATCH/511018/C6684-P111/C6684-P111.minimised.mol

>  <scratch_subdir>  (1236) 
/opt/xchem-fragalysis-2/maxwin/BulkDock/SCRATCH/511018/C6684-P111

>  <fragmenstein_runtime>  (1236) 
44.20182824134827

>  <fragmenstein_outcome>  (1236) 
too moved

>  <fragmenstein_mode>  (1236) 
expansion

>  <fragmenstein_error>  (1236) 


$$$$
C6684-P71
     RDKit          3D

 34 35  0  0  0  0  0  0  0  0999 V2000
   18.2981   -0.0664   19.4591 O   0  0  0  0  0  0  0  0  0  0  0  0
   17.2206   -1.0334   19.6122 S   0  0  0  0  0  0  0  0  0  0  0  0
   17.5202   -2.3080   20.2425 O   0  0  0  0  0  0  0  0  0  0  0  0
   15.9347   -0.2638   20.5740 C   0  0  0  0  0  0  0  0  0  0  0  0
   15.4689    1.0235   19.9995 C   0  0  0  0  0  0  0  0  0  0  0  0
   15.5401    2.2625   20.6066 C   0  0  0  0  0  0  0  0  0  0  0  0
   14.9387    3.4739   19.5523 S   0  0  0  0  0  0  0  0  0  0  0  0
   14.6053    2.2643   18.3854 C   0  0  0  0  0  0  0  0  0  0  0  0
   14.8813    1.0299   18.7435 N   0  0  0  0  0  0  0  0  0  0  0  0
   16.5530   -1.3402   17.9970 C   0  0  0  0  0  0  0  0  0  0  0  0
   15.2322   -2.1200   17.9791 C   0  0  0  0  0  0  0  0  0  0  0  0
   15.4505   -3.4933   18.2364 O   0  0  0  0  0  0  0  0  0  0  0  0
   14.5870   -2.0148   16.6160 C   0  0  0  0  0  0  0  0  0  0  0  0
   15.3893   -2.0832   15.4813 C   0  0  0  0  0  0  0  0  0  0  0  0
   15.0360   -1.3188   14.3920 C   0  0  0  0  0  0  0  0  0  0  0  0
   13.8556   -0.5783   14.4400 C   0  0  0  0  0  0  0  0  0  0  0  0
   13.7472    0.6663   13.6203 C   0  0  0  0  0  0  0  0  0  0  0  0
   12.9343    1.5923   14.2022 F   0  0  0  0  0  0  0  0  0  0  0  0
   13.2918    0.4456   12.3703 F   0  0  0  0  0  0  0  0  0  0  0  0
   14.9463    1.3015   13.4654 F   0  0  0  0  0  0  0  0  0  0  0  0
   12.8777   -0.8847   15.3857 C   0  0  0  0  0  0  0  0  0  0  0  0
   13.2532   -1.6248   16.4898 C   0  0  0  0  0  0  0  0  0  0  0  0
   15.1082   -0.9704   20.6821 H   0  0  0  0  0  0  0  0  0  0  0  0
   16.3586   -0.1083   21.5728 H   0  0  0  0  0  0  0  0  0  0  0  0
   15.9341    2.5175   21.5806 H   0  0  0  0  0  0  0  0  0  0  0  0
   14.1678    2.5105   17.4261 H   0  0  0  0  0  0  0  0  0  0  0  0
   16.4726   -0.3684   17.5004 H   0  0  0  0  0  0  0  0  0  0  0  0
   17.3445   -1.9049   17.4878 H   0  0  0  0  0  0  0  0  0  0  0  0
   14.5381   -1.7502   18.7366 H   0  0  0  0  0  0  0  0  0  0  0  0
   14.7915   -4.0131   17.7404 H   0  0  0  0  0  0  0  0  0  0  0  0
   16.3804   -2.5314   15.5092 H   0  0  0  0  0  0  0  0  0  0  0  0
   15.7569   -1.1673   13.5899 H   0  0  0  0  0  0  0  0  0  0  0  0
   11.9061   -0.3961   15.3632 H   0  0  0  0  0  0  0  0  0  0  0  0
   12.5694   -1.7216   17.3183 H   0  0  0  0  0  0  0  0  0  0  0  0
  1  2  2  0
  2  3  2  0
  2  4  1  0
  4  5  1  0
  5  6  2  0
  6  7  1  0
  7  8  1  0
  8  9  2  0
  2 10  1  0
 10 11  1  0
 11 12  1  0
 11 13  1  0
 13 14  2  0
 14 15  1  0
 15 16  2  0
 16 17  1  0
 17 18  1  0
 17 19  1  0
 17 20  1  0
 16 21  1  0
 21 22  2  0
  9  5  1  0
 22 13  1  0
  4 23  1  0
  4 24  1  0
  6 25  1  0
  8 26  1  0
 10 27  1  0
 10 28  1  0
 11 29  1  0
 12 30  1  0
 14 31  1  0
 15 32  1  0
 21 33  1  0
 22 34  1  0
M  END
>  <Energy>  (1237) 
77.206887901083221

>  <compound_id>  (1237) 
6684

>  <target_id>  (1237) 
1

>  <reference_id>  (1237) 
71

>  <inspiration_ids>  (1237) 
[111, 71]

>  <energy_score>  (1237) 
-30.394076245455835

>  <distance_score>  (1237) 
1.6720280247877446

>  <path>  (1237) 
/opt/xchem-fragalysis-2/maxwin/BulkDock/SCRATCH/511018/C6684-P71/C6684-P71.minimised.mol

>  <scratch_subdir>  (1237) 
/opt/xchem-fragalysis-2/maxwin/BulkDock/SCRATCH/511018/C6684-P71

>  <fragmenstein_runtime>  (1237) 
44.41433572769165

>  <fragmenstein_outcome>  (1237) 
too moved

>  <fragmenstein_mode>  (1237) 
expansion

>  <fragmenstein_error>  (1237) 


$$$$
C6679-P111
     RDKit          3D

 36 37  0  0  0  0  0  0  0  0999 V2000
   18.1945   -1.5846   15.1707 C   0  0  0  0  0  0  0  0  0  0  0  0
   17.2456   -0.4225   15.4563 C   0  0  0  0  0  0  0  0  0  0  0  0
   16.4735    0.0047   14.1899 C   0  0  0  0  0  0  0  0  0  0  0  0
   16.2994   -0.7374   16.5289 N   0  0  0  0  0  0  0  0  0  0  0  0
   15.4989   -1.8144   16.3813 N   0  0  0  0  0  0  0  0  0  0  0  0
   14.3381   -1.3204   16.8244 C   0  0  0  0  0  0  0  0  0  0  0  0
   13.0445   -1.7326   16.2832 C   0  0  0  0  0  0  0  0  0  0  0  0
   12.6913   -3.0227   15.9603 C   0  0  0  0  0  0  0  0  0  0  0  0
   11.2665   -2.9934   15.0203 S   0  0  0  0  0  0  0  0  0  0  0  0
   11.1913   -1.2934   15.1787 C   0  0  0  0  0  0  0  0  0  0  0  0
   12.1434   -0.7446   15.8974 N   0  0  0  0  0  0  0  0  0  0  0  0
   14.4624   -0.1678   17.5478 N   0  0  0  0  0  0  0  0  0  0  0  0
   15.7256    0.1695   17.3923 C   0  0  0  0  0  0  0  0  0  0  0  0
   16.4099    1.3858   17.8765 C   0  0  0  0  0  0  0  0  0  0  0  0
   15.5951    2.0784   19.3048 S   0  0  0  0  0  0  0  0  0  0  0  0
   16.5767    2.9423   19.9427 O   0  0  0  0  0  0  0  0  0  0  0  0
   14.3169    2.6351   18.9006 O   0  0  0  0  0  0  0  0  0  0  0  0
   15.3099    0.7059   20.4033 C   0  0  0  0  0  0  0  0  0  0  0  0
   14.6672    1.1705   21.6887 C   0  0  0  0  0  0  0  0  0  0  0  0
   14.4403    0.0468   22.5398 O   0  0  0  0  0  0  0  0  0  0  0  0
   18.9454   -1.2948   14.4282 H   0  0  0  0  0  0  0  0  0  0  0  0
   17.6607   -2.4594   14.7833 H   0  0  0  0  0  0  0  0  0  0  0  0
   18.7198   -1.8915   16.0817 H   0  0  0  0  0  0  0  0  0  0  0  0
   17.8452    0.4263   15.8047 H   0  0  0  0  0  0  0  0  0  0  0  0
   15.8650   -0.8152   13.7925 H   0  0  0  0  0  0  0  0  0  0  0  0
   15.8057    0.8469   14.4012 H   0  0  0  0  0  0  0  0  0  0  0  0
   17.1720    0.3163   13.4063 H   0  0  0  0  0  0  0  0  0  0  0  0
   13.2318   -3.9370   16.1582 H   0  0  0  0  0  0  0  0  0  0  0  0
   10.4012   -0.7157   14.7143 H   0  0  0  0  0  0  0  0  0  0  0  0
   16.4277    2.1636   17.1074 H   0  0  0  0  0  0  0  0  0  0  0  0
   17.4373    1.1582   18.1786 H   0  0  0  0  0  0  0  0  0  0  0  0
   14.6544   -0.0250   19.9294 H   0  0  0  0  0  0  0  0  0  0  0  0
   16.2712    0.2212   20.6007 H   0  0  0  0  0  0  0  0  0  0  0  0
   15.3211    1.8658   22.2242 H   0  0  0  0  0  0  0  0  0  0  0  0
   13.7127    1.6778   21.5157 H   0  0  0  0  0  0  0  0  0  0  0  0
   13.6101   -0.3937   22.2586 H   0  0  0  0  0  0  0  0  0  0  0  0
  1  2  1  0
  2  3  1  0
  2  4  1  0
  4  5  1  0
  5  6  2  0
  6  7  1  0
  7  8  2  0
  8  9  1  0
  9 10  1  0
 10 11  2  0
  6 12  1  0
 12 13  2  0
 13 14  1  0
 14 15  1  0
 15 16  2  0
 15 17  2  0
 15 18  1  0
 18 19  1  0
 19 20  1  0
 13  4  1  0
 11  7  1  0
  1 21  1  0
  1 22  1  0
  1 23  1  0
  2 24  1  0
  3 25  1  0
  3 26  1  0
  3 27  1  0
  8 28  1  0
 10 29  1  0
 14 30  1  0
 14 31  1  0
 18 32  1  0
 18 33  1  0
 19 34  1  0
 19 35  1  0
 20 36  1  0
M  END
>  <Energy>  (1238) 
63.294796985930567

>  <compound_id>  (1238) 
6679

>  <target_id>  (1238) 
1

>  <reference_id>  (1238) 
111

>  <inspiration_ids>  (1238) 
[111, 71]

>  <energy_score>  (1238) 
-77.08289156743996

>  <distance_score>  (1238) 
1.297971319379604

>  <path>  (1238) 
/opt/xchem-fragalysis-2/maxwin/BulkDock/SCRATCH/511018/C6679-P111/C6679-P111.minimised.mol

>  <scratch_subdir>  (1238) 
/opt/xchem-fragalysis-2/maxwin/BulkDock/SCRATCH/511018/C6679-P111

>  <fragmenstein_runtime>  (1238) 
3.783506393432617

>  <fragmenstein_outcome>  (1238) 
too moved

>  <fragmenstein_mode>  (1238) 
expansion

>  <fragmenstein_error>  (1238) 


$$$$
C6679-P71
     RDKit          3D

 36 37  0  0  0  0  0  0  0  0999 V2000
   18.1509   -1.7541   15.1005 C   0  0  0  0  0  0  0  0  0  0  0  0
   17.2645   -0.5473   15.4038 C   0  0  0  0  0  0  0  0  0  0  0  0
   16.4576   -0.1107   14.1621 C   0  0  0  0  0  0  0  0  0  0  0  0
   16.3528   -0.8003   16.5232 N   0  0  0  0  0  0  0  0  0  0  0  0
   15.5315   -1.8665   16.4503 N   0  0  0  0  0  0  0  0  0  0  0  0
   14.3866   -1.3220   16.8781 C   0  0  0  0  0  0  0  0  0  0  0  0
   13.0860   -1.7297   16.3448 C   0  0  0  0  0  0  0  0  0  0  0  0
   12.7425   -3.0190   16.0027 C   0  0  0  0  0  0  0  0  0  0  0  0
   11.3211   -2.9901   15.0587 S   0  0  0  0  0  0  0  0  0  0  0  0
   11.2357   -1.2916   15.2350 C   0  0  0  0  0  0  0  0  0  0  0  0
   12.1848   -0.7433   15.9586 N   0  0  0  0  0  0  0  0  0  0  0  0
   14.5495   -0.1361   17.5446 N   0  0  0  0  0  0  0  0  0  0  0  0
   15.8191    0.1582   17.3583 C   0  0  0  0  0  0  0  0  0  0  0  0
   16.5563    1.3741   17.7504 C   0  0  0  0  0  0  0  0  0  0  0  0
   15.8727    2.1916   19.1737 S   0  0  0  0  0  0  0  0  0  0  0  0
   16.9872    2.8980   19.7895 O   0  0  0  0  0  0  0  0  0  0  0  0
   14.6965    2.9447   18.7785 O   0  0  0  0  0  0  0  0  0  0  0  0
   15.3635    0.9311   20.3289 C   0  0  0  0  0  0  0  0  0  0  0  0
   14.8493    1.5826   21.5979 C   0  0  0  0  0  0  0  0  0  0  0  0
   13.5294    2.0965   21.4357 O   0  0  0  0  0  0  0  0  0  0  0  0
   18.8821   -1.5085   14.3232 H   0  0  0  0  0  0  0  0  0  0  0  0
   17.5652   -2.6111   14.7499 H   0  0  0  0  0  0  0  0  0  0  0  0
   18.6999   -2.0688   15.9947 H   0  0  0  0  0  0  0  0  0  0  0  0
   17.9151    0.2800   15.7090 H   0  0  0  0  0  0  0  0  0  0  0  0
   15.7947   -0.9094   13.8114 H   0  0  0  0  0  0  0  0  0  0  0  0
   15.8395    0.7665   14.3820 H   0  0  0  0  0  0  0  0  0  0  0  0
   17.1343    0.1506   13.3419 H   0  0  0  0  0  0  0  0  0  0  0  0
   13.2919   -3.9312   16.1847 H   0  0  0  0  0  0  0  0  0  0  0  0
   10.4440   -0.7147   14.7729 H   0  0  0  0  0  0  0  0  0  0  0  0
   16.5702    2.1060   16.9371 H   0  0  0  0  0  0  0  0  0  0  0  0
   17.5898    1.1189   18.0089 H   0  0  0  0  0  0  0  0  0  0  0  0
   14.5714    0.3313   19.8822 H   0  0  0  0  0  0  0  0  0  0  0  0
   16.2426    0.3146   20.5363 H   0  0  0  0  0  0  0  0  0  0  0  0
   14.7951    0.8326   22.3933 H   0  0  0  0  0  0  0  0  0  0  0  0
   15.4948    2.3928   21.9503 H   0  0  0  0  0  0  0  0  0  0  0  0
   13.5184    2.6953   20.6593 H   0  0  0  0  0  0  0  0  0  0  0  0
  1  2  1  0
  2  3  1  0
  2  4  1  0
  4  5  1  0
  5  6  2  0
  6  7  1  0
  7  8  2  0
  8  9  1  0
  9 10  1  0
 10 11  2  0
  6 12  1  0
 12 13  2  0
 13 14  1  0
 14 15  1  0
 15 16  2  0
 15 17  2  0
 15 18  1  0
 18 19  1  0
 19 20  1  0
 13  4  1  0
 11  7  1  0
  1 21  1  0
  1 22  1  0
  1 23  1  0
  2 24  1  0
  3 25  1  0
  3 26  1  0
  3 27  1  0
  8 28  1  0
 10 29  1  0
 14 30  1  0
 14 31  1  0
 18 32  1  0
 18 33  1  0
 19 34  1  0
 19 35  1  0
 20 36  1  0
M  END
>  <Energy>  (1239) 
64.809646342266475

>  <compound_id>  (1239) 
6679

>  <target_id>  (1239) 
1

>  <reference_id>  (1239) 
71

>  <inspiration_ids>  (1239) 
[111, 71]

>  <energy_score>  (1239) 
-75.56804221110347

>  <distance_score>  (1239) 
1.3001623558535302

>  <path>  (1239) 
/opt/xchem-fragalysis-2/maxwin/BulkDock/SCRATCH/511018/C6679-P71/C6679-P71.minimised.mol

>  <scratch_subdir>  (1239) 
/opt/xchem-fragalysis-2/maxwin/BulkDock/SCRATCH/511018/C6679-P71

>  <fragmenstein_runtime>  (1239) 
4.10462212562561

>  <fragmenstein_outcome>  (1239) 
too moved

>  <fragmenstein_mode>  (1239) 
expansion

>  <fragmenstein_error>  (1239) 


$$$$
C6686-P111
     RDKit          3D

 43 44  0  0  0  0  0  0  0  0999 V2000
   13.9169    1.3615   11.8965 C   0  0  0  0  0  0  0  0  0  0  0  0
   15.2017    2.0223   12.9322 S   0  0  0  0  0  0  0  0  0  0  0  0
   16.4505    1.8851   12.2076 O   0  0  0  0  0  0  0  0  0  0  0  0
   14.7434    3.3119   13.4070 O   0  0  0  0  0  0  0  0  0  0  0  0
   15.2280    0.8958   14.2998 C   0  0  0  0  0  0  0  0  0  0  0  0
   16.2365    1.3077   15.3630 C   0  0  0  0  0  0  0  0  0  0  0  0
   15.6229    2.1854   16.3354 O   0  0  0  0  0  0  0  0  0  0  0  0
   16.0812    1.9884   17.6133 C   0  0  0  0  0  0  0  0  0  0  0  0
   17.3767    1.5958   17.9376 C   0  0  0  0  0  0  0  0  0  0  0  0
   17.5897    0.9491   19.1589 C   0  0  0  0  0  0  0  0  0  0  0  0
   16.4682    0.5923   19.8912 C   0  0  0  0  0  0  0  0  0  0  0  0
   15.9553   -0.6672   19.5477 N   0  0  0  0  0  0  0  0  0  0  0  0
   16.4338   -1.6909   18.4826 C   0  0  0  0  0  0  0  0  0  0  0  0
   17.3470   -1.6735   17.8048 O   0  0  0  0  0  0  0  0  0  0  0  0
   15.2600   -2.6796   18.5422 N   0  0  0  0  0  0  0  0  0  0  0  0
   14.9444   -3.7878   17.7071 C   0  0  0  0  0  0  0  0  0  0  0  0
   13.4685   -3.7680   17.3333 C   0  0  0  0  0  0  0  0  0  0  0  0
   12.9437   -2.6501   16.4854 C   0  0  0  0  0  0  0  0  0  0  0  0
   12.0702   -2.8151   15.4264 C   0  0  0  0  0  0  0  0  0  0  0  0
   11.5642   -1.3064   14.8189 S   0  0  0  0  0  0  0  0  0  0  0  0
   12.4813   -0.5385   16.0287 C   0  0  0  0  0  0  0  0  0  0  0  0
   13.1670   -1.3253   16.8268 N   0  0  0  0  0  0  0  0  0  0  0  0
   15.4009    1.4801   19.8773 C   0  0  0  0  0  0  0  0  0  0  0  0
   15.1393    2.0735   18.6385 C   0  0  0  0  0  0  0  0  0  0  0  0
   12.9766    1.3682   12.4508 H   0  0  0  0  0  0  0  0  0  0  0  0
   13.8329    1.9938   11.0103 H   0  0  0  0  0  0  0  0  0  0  0  0
   14.1872    0.3446   11.6059 H   0  0  0  0  0  0  0  0  0  0  0  0
   14.2175    0.8832   14.7002 H   0  0  0  0  0  0  0  0  0  0  0  0
   15.4858   -0.0835   13.8849 H   0  0  0  0  0  0  0  0  0  0  0  0
   16.5649    0.3771   15.8431 H   0  0  0  0  0  0  0  0  0  0  0  0
   17.1095    1.8120   14.9346 H   0  0  0  0  0  0  0  0  0  0  0  0
   18.1818    1.6281   17.2110 H   0  0  0  0  0  0  0  0  0  0  0  0
   18.5281    0.4151   19.2976 H   0  0  0  0  0  0  0  0  0  0  0  0
   15.0624   -0.9489   19.9102 H   0  0  0  0  0  0  0  0  0  0  0  0
   14.6622   -2.4472   19.3158 H   0  0  0  0  0  0  0  0  0  0  0  0
   15.1962   -4.6793   18.2839 H   0  0  0  0  0  0  0  0  0  0  0  0
   15.5825   -3.7533   16.8185 H   0  0  0  0  0  0  0  0  0  0  0  0
   12.8803   -3.7847   18.2572 H   0  0  0  0  0  0  0  0  0  0  0  0
   13.2374   -4.7031   16.8126 H   0  0  0  0  0  0  0  0  0  0  0  0
   11.6723   -3.7248   15.0084 H   0  0  0  0  0  0  0  0  0  0  0  0
   12.4957    0.5386   16.1360 H   0  0  0  0  0  0  0  0  0  0  0  0
   14.5869    1.3962   20.5936 H   0  0  0  0  0  0  0  0  0  0  0  0
   14.1591    2.4966   18.4397 H   0  0  0  0  0  0  0  0  0  0  0  0
  1  2  1  0
  2  3  2  0
  2  4  2  0
  2  5  1  0
  5  6  1  0
  6  7  1  0
  7  8  1  0
  8  9  2  0
  9 10  1  0
 10 11  2  0
 11 12  1  0
 12 13  1  0
 13 14  2  0
 13 15  1  0
 15 16  1  0
 16 17  1  0
 17 18  1  0
 18 19  2  0
 19 20  1  0
 20 21  1  0
 21 22  2  0
 11 23  1  0
 23 24  2  0
 24  8  1  0
 22 18  1  0
  1 25  1  0
  1 26  1  0
  1 27  1  0
  5 28  1  0
  5 29  1  0
  6 30  1  0
  6 31  1  0
  9 32  1  0
 10 33  1  0
 12 34  1  0
 15 35  1  0
 16 36  1  0
 16 37  1  0
 17 38  1  0
 17 39  1  0
 19 40  1  0
 21 41  1  0
 23 42  1  0
 24 43  1  0
M  END
>  <Energy>  (1240) 
38.87658598766258

>  <compound_id>  (1240) 
6686

>  <target_id>  (1240) 
1

>  <reference_id>  (1240) 
111

>  <inspiration_ids>  (1240) 
[111, 71]

>  <energy_score>  (1240) 
26.03071330021033

>  <distance_score>  (1240) 
2.0732789472598223

>  <path>  (1240) 
/opt/xchem-fragalysis-2/maxwin/BulkDock/SCRATCH/511018/C6686-P111/C6686-P111.minimised.mol

>  <scratch_subdir>  (1240) 
/opt/xchem-fragalysis-2/maxwin/BulkDock/SCRATCH/511018/C6686-P111

>  <fragmenstein_runtime>  (1240) 
4.072667121887207

>  <fragmenstein_outcome>  (1240) 
too moved

>  <fragmenstein_mode>  (1240) 
expansion

>  <fragmenstein_error>  (1240) 


$$$$
C6686-P71
     RDKit          3D

 43 44  0  0  0  0  0  0  0  0999 V2000
   13.9137    1.3566   12.0662 C   0  0  0  0  0  0  0  0  0  0  0  0
   15.2272    1.9364   13.1159 S   0  0  0  0  0  0  0  0  0  0  0  0
   16.4736    1.6604   12.4265 O   0  0  0  0  0  0  0  0  0  0  0  0
   14.8781    3.2816   13.5245 O   0  0  0  0  0  0  0  0  0  0  0  0
   15.1145    0.8643   14.5268 C   0  0  0  0  0  0  0  0  0  0  0  0
   16.1722    1.1701   15.5805 C   0  0  0  0  0  0  0  0  0  0  0  0
   15.6641    2.1247   16.5385 O   0  0  0  0  0  0  0  0  0  0  0  0
   16.0000    1.8459   17.8374 C   0  0  0  0  0  0  0  0  0  0  0  0
   17.2159    1.3088   18.2464 C   0  0  0  0  0  0  0  0  0  0  0  0
   17.2895    0.6852   19.4980 C   0  0  0  0  0  0  0  0  0  0  0  0
   16.1015    0.4802   20.1904 C   0  0  0  0  0  0  0  0  0  0  0  0
   15.5191   -0.7658   19.9270 N   0  0  0  0  0  0  0  0  0  0  0  0
   16.0585   -1.9752   19.1228 C   0  0  0  0  0  0  0  0  0  0  0  0
   17.0734   -2.1410   18.6373 O   0  0  0  0  0  0  0  0  0  0  0  0
   14.7832   -2.8414   19.0866 N   0  0  0  0  0  0  0  0  0  0  0  0
   14.4977   -4.0348   18.3599 C   0  0  0  0  0  0  0  0  0  0  0  0
   14.5640   -3.6749   16.8607 C   0  0  0  0  0  0  0  0  0  0  0  0
   13.3715   -2.9323   16.3331 C   0  0  0  0  0  0  0  0  0  0  0  0
   12.1507   -3.5098   16.0506 C   0  0  0  0  0  0  0  0  0  0  0  0
   11.1502   -2.4041   15.2258 S   0  0  0  0  0  0  0  0  0  0  0  0
   12.3333   -1.1996   15.4323 C   0  0  0  0  0  0  0  0  0  0  0  0
   13.4564   -1.5825   16.0015 N   0  0  0  0  0  0  0  0  0  0  0  0
   15.1174    1.4492   20.0587 C   0  0  0  0  0  0  0  0  0  0  0  0
   15.0086    2.0442   18.7966 C   0  0  0  0  0  0  0  0  0  0  0  0
   13.9056    1.9662   11.1603 H   0  0  0  0  0  0  0  0  0  0  0  0
   14.1011    0.3117   11.8119 H   0  0  0  0  0  0  0  0  0  0  0  0
   12.9653    1.4613   12.5963 H   0  0  0  0  0  0  0  0  0  0  0  0
   14.1110    0.9917   14.9360 H   0  0  0  0  0  0  0  0  0  0  0  0
   15.2468   -0.1516   14.1417 H   0  0  0  0  0  0  0  0  0  0  0  0
   16.4021    0.2155   16.0716 H   0  0  0  0  0  0  0  0  0  0  0  0
   17.0938    1.5699   15.1446 H   0  0  0  0  0  0  0  0  0  0  0  0
   18.0619    1.2412   17.5702 H   0  0  0  0  0  0  0  0  0  0  0  0
   18.1605    0.0666   19.7092 H   0  0  0  0  0  0  0  0  0  0  0  0
   14.6056   -0.9786   20.2853 H   0  0  0  0  0  0  0  0  0  0  0  0
   14.0368   -2.3625   19.5568 H   0  0  0  0  0  0  0  0  0  0  0  0
   13.5211   -4.4205   18.6642 H   0  0  0  0  0  0  0  0  0  0  0  0
   15.2792   -4.7623   18.5981 H   0  0  0  0  0  0  0  0  0  0  0  0
   14.6474   -4.6090   16.2933 H   0  0  0  0  0  0  0  0  0  0  0  0
   15.4723   -3.1057   16.6287 H   0  0  0  0  0  0  0  0  0  0  0  0
   11.8338   -4.5264   16.2307 H   0  0  0  0  0  0  0  0  0  0  0  0
   12.1581   -0.1873   15.0962 H   0  0  0  0  0  0  0  0  0  0  0  0
   14.2510    1.4658   20.7145 H   0  0  0  0  0  0  0  0  0  0  0  0
   14.0958    2.5708   18.5275 H   0  0  0  0  0  0  0  0  0  0  0  0
  1  2  1  0
  2  3  2  0
  2  4  2  0
  2  5  1  0
  5  6  1  0
  6  7  1  0
  7  8  1  0
  8  9  2  0
  9 10  1  0
 10 11  2  0
 11 12  1  0
 12 13  1  0
 13 14  2  0
 13 15  1  0
 15 16  1  0
 16 17  1  0
 17 18  1  0
 18 19  2  0
 19 20  1  0
 20 21  1  0
 21 22  2  0
 11 23  1  0
 23 24  2  0
 24  8  1  0
 22 18  1  0
  1 25  1  0
  1 26  1  0
  1 27  1  0
  5 28  1  0
  5 29  1  0
  6 30  1  0
  6 31  1  0
  9 32  1  0
 10 33  1  0
 12 34  1  0
 15 35  1  0
 16 36  1  0
 16 37  1  0
 17 38  1  0
 17 39  1  0
 19 40  1  0
 21 41  1  0
 23 42  1  0
 24 43  1  0
M  END
>  <Energy>  (1241) 
31.191168478837184

>  <compound_id>  (1241) 
6686

>  <target_id>  (1241) 
1

>  <reference_id>  (1241) 
71

>  <inspiration_ids>  (1241) 
[111, 71]

>  <energy_score>  (1241) 
18.345295791385254

>  <distance_score>  (1241) 
1.9814170456467326

>  <path>  (1241) 
/opt/xchem-fragalysis-2/maxwin/BulkDock/SCRATCH/511018/C6686-P71/C6686-P71.minimised.mol

>  <scratch_subdir>  (1241) 
/opt/xchem-fragalysis-2/maxwin/BulkDock/SCRATCH/511018/C6686-P71

>  <fragmenstein_runtime>  (1241) 
3.378840684890747

>  <fragmenstein_outcome>  (1241) 
too moved

>  <fragmenstein_mode>  (1241) 
expansion

>  <fragmenstein_error>  (1241) 


$$$$
C6688-P111
     RDKit          3D

 39 40  0  0  0  0  0  0  0  0999 V2000
   15.1427    0.1090   13.0459 C   0  0  0  0  0  0  0  0  0  0  0  0
   15.3160    1.8737   13.0222 S   0  0  0  0  0  0  0  0  0  0  0  0
   15.5843    2.2481   11.6482 O   0  0  0  0  0  0  0  0  0  0  0  0
   16.2480    2.2249   14.0696 O   0  0  0  0  0  0  0  0  0  0  0  0
   13.6932    2.4812   13.4685 C   0  0  0  0  0  0  0  0  0  0  0  0
   13.7662    3.5713   14.5526 C   0  0  0  0  0  0  0  0  0  0  0  0
   13.0574    3.2119   15.7622 O   0  0  0  0  0  0  0  0  0  0  0  0
   13.8610    2.7322   16.7556 C   0  0  0  0  0  0  0  0  0  0  0  0
   14.0939    3.4177   17.9433 C   0  0  0  0  0  0  0  0  0  0  0  0
   14.8156    2.7975   18.9907 C   0  0  0  0  0  0  0  0  0  0  0  0
   15.3002    1.4921   18.8530 C   0  0  0  0  0  0  0  0  0  0  0  0
   15.0280    0.8250   17.6720 C   0  0  0  0  0  0  0  0  0  0  0  0
   15.2801   -0.4995   17.4007 N   0  0  0  0  0  0  0  0  0  0  0  0
   15.8738   -1.6134   18.2960 C   0  0  0  0  0  0  0  0  0  0  0  0
   16.3111   -1.5625   19.3732 O   0  0  0  0  0  0  0  0  0  0  0  0
   15.6519   -2.8304   17.4522 C   0  0  0  0  0  0  0  0  0  0  0  0
   14.3318   -3.1048   17.5230 C   0  0  0  0  0  0  0  0  0  0  0  0
   13.4261   -2.9596   16.4243 C   0  0  0  0  0  0  0  0  0  0  0  0
   12.2598   -3.6682   16.2822 C   0  0  0  0  0  0  0  0  0  0  0  0
   11.3141   -2.9732   15.0357 S   0  0  0  0  0  0  0  0  0  0  0  0
   12.5252   -1.8038   14.7793 C   0  0  0  0  0  0  0  0  0  0  0  0
   13.5873   -1.8839   15.5559 N   0  0  0  0  0  0  0  0  0  0  0  0
   14.3066    1.4379   16.6460 C   0  0  0  0  0  0  0  0  0  0  0  0
   16.0603   -0.3254   12.6425 H   0  0  0  0  0  0  0  0  0  0  0  0
   14.2954   -0.1733   12.4188 H   0  0  0  0  0  0  0  0  0  0  0  0
   15.0074   -0.2236   14.0716 H   0  0  0  0  0  0  0  0  0  0  0  0
   13.2573    2.8855   12.5489 H   0  0  0  0  0  0  0  0  0  0  0  0
   13.0816    1.6340   13.7892 H   0  0  0  0  0  0  0  0  0  0  0  0
   14.7728    3.9386   14.7804 H   0  0  0  0  0  0  0  0  0  0  0  0
   13.2233    4.4443   14.1698 H   0  0  0  0  0  0  0  0  0  0  0  0
   13.7071    4.4236   18.0784 H   0  0  0  0  0  0  0  0  0  0  0  0
   14.9877    3.3391   19.9182 H   0  0  0  0  0  0  0  0  0  0  0  0
   15.8342    1.0118   19.6670 H   0  0  0  0  0  0  0  0  0  0  0  0
   14.9135   -0.9103   16.5439 H   0  0  0  0  0  0  0  0  0  0  0  0
   16.1758   -2.8047   16.5010 H   0  0  0  0  0  0  0  0  0  0  0  0
   13.8461   -3.0326   18.4996 H   0  0  0  0  0  0  0  0  0  0  0  0
   11.9040   -4.5130   16.8519 H   0  0  0  0  0  0  0  0  0  0  0  0
   12.4040   -1.0456   14.0185 H   0  0  0  0  0  0  0  0  0  0  0  0
   14.0291    0.8655   15.7724 H   0  0  0  0  0  0  0  0  0  0  0  0
  1  2  1  0
  2  3  2  0
  2  4  2  0
  2  5  1  0
  5  6  1  0
  6  7  1  0
  7  8  1  0
  8  9  2  0
  9 10  1  0
 10 11  2  0
 11 12  1  0
 12 13  1  0
 13 14  1  0
 14 15  2  0
 14 16  1  0
 16 17  2  3
 17 18  1  0
 18 19  2  0
 19 20  1  0
 20 21  1  0
 21 22  2  0
 12 23  2  0
 23  8  1  0
 22 18  1  0
  1 24  1  0
  1 25  1  0
  1 26  1  0
  5 27  1  0
  5 28  1  0
  6 29  1  0
  6 30  1  0
  9 31  1  0
 10 32  1  0
 11 33  1  0
 13 34  1  0
 16 35  1  0
 17 36  1  0
 19 37  1  0
 21 38  1  0
 23 39  1  0
M  END
>  <Energy>  (1242) 
33.233710484038269

>  <compound_id>  (1242) 
6688

>  <target_id>  (1242) 
1

>  <reference_id>  (1242) 
111

>  <inspiration_ids>  (1242) 
[111, 71]

>  <energy_score>  (1242) 
-16.92756685620911

>  <distance_score>  (1242) 
1.5526706675214887

>  <path>  (1242) 
/opt/xchem-fragalysis-2/maxwin/BulkDock/SCRATCH/511018/C6688-P111/C6688-P111.minimised.mol

>  <scratch_subdir>  (1242) 
/opt/xchem-fragalysis-2/maxwin/BulkDock/SCRATCH/511018/C6688-P111

>  <fragmenstein_runtime>  (1242) 
4.655604124069214

>  <fragmenstein_outcome>  (1242) 
too moved

>  <fragmenstein_mode>  (1242) 
expansion

>  <fragmenstein_error>  (1242) 


$$$$
C6688-P71
     RDKit          3D

 39 40  0  0  0  0  0  0  0  0999 V2000
   15.0254    0.1632   12.9933 C   0  0  0  0  0  0  0  0  0  0  0  0
   15.1932    1.9273   12.8954 S   0  0  0  0  0  0  0  0  0  0  0  0
   15.4898    2.2186   11.5057 O   0  0  0  0  0  0  0  0  0  0  0  0
   16.1046    2.3577   13.9307 O   0  0  0  0  0  0  0  0  0  0  0  0
   13.5757    2.5733   13.2599 C   0  0  0  0  0  0  0  0  0  0  0  0
   13.1047    2.3237   14.6961 C   0  0  0  0  0  0  0  0  0  0  0  0
   13.7403    3.1828   15.6650 O   0  0  0  0  0  0  0  0  0  0  0  0
   14.2409    2.5952   16.7943 C   0  0  0  0  0  0  0  0  0  0  0  0
   14.1479    3.2243   18.0341 C   0  0  0  0  0  0  0  0  0  0  0  0
   14.6246    2.5849   19.2060 C   0  0  0  0  0  0  0  0  0  0  0  0
   15.1656    1.2966   19.1501 C   0  0  0  0  0  0  0  0  0  0  0  0
   15.2480    0.6957   17.9088 C   0  0  0  0  0  0  0  0  0  0  0  0
   15.4185   -0.6472   17.6614 N   0  0  0  0  0  0  0  0  0  0  0  0
   15.8087   -1.8015   18.6122 C   0  0  0  0  0  0  0  0  0  0  0  0
   16.1208   -1.7827   19.7325 O   0  0  0  0  0  0  0  0  0  0  0  0
   15.5821   -2.9913   17.7316 C   0  0  0  0  0  0  0  0  0  0  0  0
   14.2434   -3.1563   17.6854 C   0  0  0  0  0  0  0  0  0  0  0  0
   13.4326   -3.0068   16.5179 C   0  0  0  0  0  0  0  0  0  0  0  0
   12.2736   -3.7095   16.2999 C   0  0  0  0  0  0  0  0  0  0  0  0
   11.3936   -2.9907   15.0225 S   0  0  0  0  0  0  0  0  0  0  0  0
   12.6308   -1.8349   14.8400 C   0  0  0  0  0  0  0  0  0  0  0  0
   13.6555   -1.9325   15.6641 N   0  0  0  0  0  0  0  0  0  0  0  0
   14.8748    1.3764   16.7502 C   0  0  0  0  0  0  0  0  0  0  0  0
   15.9653   -0.2820   12.6583 H   0  0  0  0  0  0  0  0  0  0  0  0
   14.2165   -0.1493   12.3302 H   0  0  0  0  0  0  0  0  0  0  0  0
   14.8302   -0.1401   14.0150 H   0  0  0  0  0  0  0  0  0  0  0  0
   13.6285    3.6491   13.0620 H   0  0  0  0  0  0  0  0  0  0  0  0
   12.8854    2.1168   12.5435 H   0  0  0  0  0  0  0  0  0  0  0  0
   12.0416    2.5922   14.7377 H   0  0  0  0  0  0  0  0  0  0  0  0
   13.1411    1.2608   14.9486 H   0  0  0  0  0  0  0  0  0  0  0  0
   13.6816    4.2031   18.1103 H   0  0  0  0  0  0  0  0  0  0  0  0
   14.5216    3.0862   20.1654 H   0  0  0  0  0  0  0  0  0  0  0  0
   15.4392    0.7696   20.0583 H   0  0  0  0  0  0  0  0  0  0  0  0
   15.2817   -1.0119   16.7220 H   0  0  0  0  0  0  0  0  0  0  0  0
   16.1940   -3.0221   16.8360 H   0  0  0  0  0  0  0  0  0  0  0  0
   13.6838   -3.0291   18.6160 H   0  0  0  0  0  0  0  0  0  0  0  0
   11.8776   -4.5511   16.8450 H   0  0  0  0  0  0  0  0  0  0  0  0
   12.5485   -1.0717   14.0806 H   0  0  0  0  0  0  0  0  0  0  0  0
   15.0403    0.8921   15.8022 H   0  0  0  0  0  0  0  0  0  0  0  0
  1  2  1  0
  2  3  2  0
  2  4  2  0
  2  5  1  0
  5  6  1  0
  6  7  1  0
  7  8  1  0
  8  9  2  0
  9 10  1  0
 10 11  2  0
 11 12  1  0
 12 13  1  0
 13 14  1  0
 14 15  2  0
 14 16  1  0
 16 17  2  3
 17 18  1  0
 18 19  2  0
 19 20  1  0
 20 21  1  0
 21 22  2  0
 12 23  2  0
 23  8  1  0
 22 18  1  0
  1 24  1  0
  1 25  1  0
  1 26  1  0
  5 27  1  0
  5 28  1  0
  6 29  1  0
  6 30  1  0
  9 31  1  0
 10 32  1  0
 11 33  1  0
 13 34  1  0
 16 35  1  0
 17 36  1  0
 19 37  1  0
 21 38  1  0
 23 39  1  0
M  END
>  <Energy>  (1243) 
37.745704847659283

>  <compound_id>  (1243) 
6688

>  <target_id>  (1243) 
1

>  <reference_id>  (1243) 
71

>  <inspiration_ids>  (1243) 
[111, 71]

>  <energy_score>  (1243) 
-12.415572492586904

>  <distance_score>  (1243) 
1.5703092492664281

>  <path>  (1243) 
/opt/xchem-fragalysis-2/maxwin/BulkDock/SCRATCH/511018/C6688-P71/C6688-P71.minimised.mol

>  <scratch_subdir>  (1243) 
/opt/xchem-fragalysis-2/maxwin/BulkDock/SCRATCH/511018/C6688-P71

>  <fragmenstein_runtime>  (1243) 
4.960321664810181

>  <fragmenstein_outcome>  (1243) 
too moved

>  <fragmenstein_mode>  (1243) 
expansion

>  <fragmenstein_error>  (1243) 


$$$$
C6689-P111
     RDKit          3D

 36 37  0  0  0  0  0  0  0  0999 V2000
   13.8812    1.2098   12.7434 C   0  0  0  0  0  0  0  0  0  0  0  0
   14.9794    2.2619   13.6646 S   0  0  0  0  0  0  0  0  0  0  0  0
   14.5517    3.6236   13.4135 O   0  0  0  0  0  0  0  0  0  0  0  0
   16.3319    1.8462   13.3436 O   0  0  0  0  0  0  0  0  0  0  0  0
   14.6369    1.9009   15.3920 C   0  0  0  0  0  0  0  0  0  0  0  0
   15.2032    3.0208   16.3190 C   0  0  0  0  0  0  0  0  0  0  0  0
   15.1305    2.8032   17.7724 O   0  0  0  0  0  0  0  0  0  0  0  0
   15.7390    1.6502   18.1730 C   0  0  0  0  0  0  0  0  0  0  0  0
   16.8495    1.1388   17.5253 C   0  0  0  0  0  0  0  0  0  0  0  0
   16.9417   -0.2344   17.4113 C   0  0  0  0  0  0  0  0  0  0  0  0
   15.9649   -1.0389   17.9968 C   0  0  0  0  0  0  0  0  0  0  0  0
   15.8242   -2.3516   17.5576 N   0  0  0  0  0  0  0  0  0  0  0  0
   14.4863   -2.9462   17.5920 C   0  0  0  0  0  0  0  0  0  0  0  0
   13.4233   -2.5501   16.5880 C   0  0  0  0  0  0  0  0  0  0  0  0
   12.4221   -3.4090   16.1673 C   0  0  0  0  0  0  0  0  0  0  0  0
   11.3975   -2.6394   15.0425 S   0  0  0  0  0  0  0  0  0  0  0  0
   12.3019   -1.2055   15.2286 C   0  0  0  0  0  0  0  0  0  0  0  0
   13.3347   -1.2666   16.0428 N   0  0  0  0  0  0  0  0  0  0  0  0
   15.1843   -0.4931   19.0112 C   0  0  0  0  0  0  0  0  0  0  0  0
   15.0410    0.8800   19.0846 C   0  0  0  0  0  0  0  0  0  0  0  0
   14.1165    0.1698   12.9754 H   0  0  0  0  0  0  0  0  0  0  0  0
   12.8520    1.4477   13.0175 H   0  0  0  0  0  0  0  0  0  0  0  0
   14.0376    1.3997   11.6794 H   0  0  0  0  0  0  0  0  0  0  0  0
   15.0425    0.9107   15.5950 H   0  0  0  0  0  0  0  0  0  0  0  0
   13.5506    1.8548   15.5166 H   0  0  0  0  0  0  0  0  0  0  0  0
   16.2312    3.2895   16.0463 H   0  0  0  0  0  0  0  0  0  0  0  0
   14.6163    3.9307   16.1439 H   0  0  0  0  0  0  0  0  0  0  0  0
   17.5148    1.7600   16.9355 H   0  0  0  0  0  0  0  0  0  0  0  0
   17.6854   -0.6610   16.7438 H   0  0  0  0  0  0  0  0  0  0  0  0
   16.2330   -2.4649   16.6328 H   0  0  0  0  0  0  0  0  0  0  0  0
   14.6590   -4.0204   17.4402 H   0  0  0  0  0  0  0  0  0  0  0  0
   14.0530   -2.8943   18.5976 H   0  0  0  0  0  0  0  0  0  0  0  0
   12.2542   -4.4356   16.4633 H   0  0  0  0  0  0  0  0  0  0  0  0
   12.0240   -0.3063   14.6974 H   0  0  0  0  0  0  0  0  0  0  0  0
   14.5543   -1.1087   19.6433 H   0  0  0  0  0  0  0  0  0  0  0  0
   14.2634    1.3168   19.7026 H   0  0  0  0  0  0  0  0  0  0  0  0
  1  2  1  0
  2  3  2  0
  2  4  2  0
  2  5  1  0
  5  6  1  0
  6  7  1  0
  7  8  1  0
  8  9  2  0
  9 10  1  0
 10 11  2  0
 11 12  1  0
 12 13  1  0
 13 14  1  0
 14 15  2  0
 15 16  1  0
 16 17  1  0
 17 18  2  0
 11 19  1  0
 19 20  2  0
 20  8  1  0
 18 14  1  0
  1 21  1  0
  1 22  1  0
  1 23  1  0
  5 24  1  0
  5 25  1  0
  6 26  1  0
  6 27  1  0
  9 28  1  0
 10 29  1  0
 12 30  1  0
 13 31  1  0
 13 32  1  0
 15 33  1  0
 17 34  1  0
 19 35  1  0
 20 36  1  0
M  END
>  <Energy>  (1244) 
45.717127371555016

>  <compound_id>  (1244) 
6689

>  <target_id>  (1244) 
1

>  <reference_id>  (1244) 
111

>  <inspiration_ids>  (1244) 
[111, 71]

>  <energy_score>  (1244) 
-50.18004656960349

>  <distance_score>  (1244) 
1.631932612343729

>  <path>  (1244) 
/opt/xchem-fragalysis-2/maxwin/BulkDock/SCRATCH/511018/C6689-P111/C6689-P111.minimised.mol

>  <scratch_subdir>  (1244) 
/opt/xchem-fragalysis-2/maxwin/BulkDock/SCRATCH/511018/C6689-P111

>  <fragmenstein_runtime>  (1244) 
2.4487125873565674

>  <fragmenstein_outcome>  (1244) 
too moved

>  <fragmenstein_mode>  (1244) 
expansion

>  <fragmenstein_error>  (1244) 


$$$$
C6689-P71
     RDKit          3D

 36 37  0  0  0  0  0  0  0  0999 V2000
   13.8523    1.2220   12.7663 C   0  0  0  0  0  0  0  0  0  0  0  0
   14.9845    2.2520   13.6713 S   0  0  0  0  0  0  0  0  0  0  0  0
   14.5917    3.6226   13.4118 O   0  0  0  0  0  0  0  0  0  0  0  0
   16.3234    1.7994   13.3418 O   0  0  0  0  0  0  0  0  0  0  0  0
   14.6459    1.9088   15.4033 C   0  0  0  0  0  0  0  0  0  0  0  0
   15.2455    3.0189   16.3199 C   0  0  0  0  0  0  0  0  0  0  0  0
   15.1858    2.8077   17.7742 O   0  0  0  0  0  0  0  0  0  0  0  0
   15.7633    1.6383   18.1699 C   0  0  0  0  0  0  0  0  0  0  0  0
   16.8635    1.1026   17.5244 C   0  0  0  0  0  0  0  0  0  0  0  0
   16.9385   -0.2732   17.4280 C   0  0  0  0  0  0  0  0  0  0  0  0
   15.9532   -1.0596   18.0247 C   0  0  0  0  0  0  0  0  0  0  0  0
   15.8071   -2.3813   17.6125 N   0  0  0  0  0  0  0  0  0  0  0  0
   14.4624   -2.9624   17.6454 C   0  0  0  0  0  0  0  0  0  0  0  0
   13.4175   -2.5694   16.6227 C   0  0  0  0  0  0  0  0  0  0  0  0
   12.4491   -3.4390   16.1515 C   0  0  0  0  0  0  0  0  0  0  0  0
   11.4274   -2.6560   15.0346 S   0  0  0  0  0  0  0  0  0  0  0  0
   12.2905   -1.2067   15.2854 C   0  0  0  0  0  0  0  0  0  0  0  0
   13.3106   -1.2724   16.1146 N   0  0  0  0  0  0  0  0  0  0  0  0
   15.1705   -0.4897   19.0247 C   0  0  0  0  0  0  0  0  0  0  0  0
   15.0472    0.8861   19.0823 C   0  0  0  0  0  0  0  0  0  0  0  0
   14.0658    0.1777   13.0005 H   0  0  0  0  0  0  0  0  0  0  0  0
   12.8319    1.4844   13.0508 H   0  0  0  0  0  0  0  0  0  0  0  0
   14.0015    1.4037   11.6999 H   0  0  0  0  0  0  0  0  0  0  0  0
   15.0293    0.9101   15.6090 H   0  0  0  0  0  0  0  0  0  0  0  0
   13.5597    1.8888   15.5358 H   0  0  0  0  0  0  0  0  0  0  0  0
   16.2763    3.2632   16.0352 H   0  0  0  0  0  0  0  0  0  0  0  0
   14.6771    3.9411   16.1477 H   0  0  0  0  0  0  0  0  0  0  0  0
   17.5374    1.7088   16.9286 H   0  0  0  0  0  0  0  0  0  0  0  0
   17.6784   -0.7172   16.7679 H   0  0  0  0  0  0  0  0  0  0  0  0
   16.2209   -2.5146   16.6926 H   0  0  0  0  0  0  0  0  0  0  0  0
   14.6233   -4.0425   17.5180 H   0  0  0  0  0  0  0  0  0  0  0  0
   14.0182   -2.8844   18.6446 H   0  0  0  0  0  0  0  0  0  0  0  0
   12.2983   -4.4777   16.4108 H   0  0  0  0  0  0  0  0  0  0  0  0
   12.0001   -0.2951   14.7822 H   0  0  0  0  0  0  0  0  0  0  0  0
   14.5247   -1.0882   19.6571 H   0  0  0  0  0  0  0  0  0  0  0  0
   14.2708    1.3423   19.6873 H   0  0  0  0  0  0  0  0  0  0  0  0
  1  2  1  0
  2  3  2  0
  2  4  2  0
  2  5  1  0
  5  6  1  0
  6  7  1  0
  7  8  1  0
  8  9  2  0
  9 10  1  0
 10 11  2  0
 11 12  1  0
 12 13  1  0
 13 14  1  0
 14 15  2  0
 15 16  1  0
 16 17  1  0
 17 18  2  0
 11 19  1  0
 19 20  2  0
 20  8  1  0
 18 14  1  0
  1 21  1  0
  1 22  1  0
  1 23  1  0
  5 24  1  0
  5 25  1  0
  6 26  1  0
  6 27  1  0
  9 28  1  0
 10 29  1  0
 12 30  1  0
 13 31  1  0
 13 32  1  0
 15 33  1  0
 17 34  1  0
 19 35  1  0
 20 36  1  0
M  END
>  <Energy>  (1245) 
44.511407132503869

>  <compound_id>  (1245) 
6689

>  <target_id>  (1245) 
1

>  <reference_id>  (1245) 
71

>  <inspiration_ids>  (1245) 
[111, 71]

>  <energy_score>  (1245) 
-51.38576680865421

>  <distance_score>  (1245) 
1.6476436233463965

>  <path>  (1245) 
/opt/xchem-fragalysis-2/maxwin/BulkDock/SCRATCH/511018/C6689-P71/C6689-P71.minimised.mol

>  <scratch_subdir>  (1245) 
/opt/xchem-fragalysis-2/maxwin/BulkDock/SCRATCH/511018/C6689-P71

>  <fragmenstein_runtime>  (1245) 
2.518181562423706

>  <fragmenstein_outcome>  (1245) 
too moved

>  <fragmenstein_mode>  (1245) 
expansion

>  <fragmenstein_error>  (1245) 


$$$$
C6686-P111
     RDKit          3D

 43 44  0  0  0  0  0  0  0  0999 V2000
   13.9169    1.3615   11.8965 C   0  0  0  0  0  0  0  0  0  0  0  0
   15.2017    2.0223   12.9322 S   0  0  0  0  0  0  0  0  0  0  0  0
   16.4505    1.8851   12.2076 O   0  0  0  0  0  0  0  0  0  0  0  0
   14.7434    3.3119   13.4070 O   0  0  0  0  0  0  0  0  0  0  0  0
   15.2280    0.8958   14.2998 C   0  0  0  0  0  0  0  0  0  0  0  0
   16.2365    1.3077   15.3630 C   0  0  0  0  0  0  0  0  0  0  0  0
   15.6229    2.1854   16.3354 O   0  0  0  0  0  0  0  0  0  0  0  0
   16.0812    1.9884   17.6133 C   0  0  0  0  0  0  0  0  0  0  0  0
   17.3767    1.5958   17.9376 C   0  0  0  0  0  0  0  0  0  0  0  0
   17.5897    0.9491   19.1589 C   0  0  0  0  0  0  0  0  0  0  0  0
   16.4682    0.5923   19.8912 C   0  0  0  0  0  0  0  0  0  0  0  0
   15.9553   -0.6672   19.5477 N   0  0  0  0  0  0  0  0  0  0  0  0
   16.4338   -1.6909   18.4826 C   0  0  0  0  0  0  0  0  0  0  0  0
   17.3470   -1.6735   17.8048 O   0  0  0  0  0  0  0  0  0  0  0  0
   15.2600   -2.6796   18.5422 N   0  0  0  0  0  0  0  0  0  0  0  0
   14.9444   -3.7878   17.7071 C   0  0  0  0  0  0  0  0  0  0  0  0
   13.4685   -3.7680   17.3333 C   0  0  0  0  0  0  0  0  0  0  0  0
   12.9437   -2.6501   16.4854 C   0  0  0  0  0  0  0  0  0  0  0  0
   12.0702   -2.8151   15.4264 C   0  0  0  0  0  0  0  0  0  0  0  0
   11.5642   -1.3064   14.8189 S   0  0  0  0  0  0  0  0  0  0  0  0
   12.4813   -0.5385   16.0287 C   0  0  0  0  0  0  0  0  0  0  0  0
   13.1670   -1.3253   16.8268 N   0  0  0  0  0  0  0  0  0  0  0  0
   15.4009    1.4801   19.8773 C   0  0  0  0  0  0  0  0  0  0  0  0
   15.1393    2.0735   18.6385 C   0  0  0  0  0  0  0  0  0  0  0  0
   12.9766    1.3682   12.4508 H   0  0  0  0  0  0  0  0  0  0  0  0
   13.8329    1.9938   11.0103 H   0  0  0  0  0  0  0  0  0  0  0  0
   14.1872    0.3446   11.6059 H   0  0  0  0  0  0  0  0  0  0  0  0
   14.2175    0.8832   14.7002 H   0  0  0  0  0  0  0  0  0  0  0  0
   15.4858   -0.0835   13.8849 H   0  0  0  0  0  0  0  0  0  0  0  0
   16.5649    0.3771   15.8431 H   0  0  0  0  0  0  0  0  0  0  0  0
   17.1095    1.8120   14.9346 H   0  0  0  0  0  0  0  0  0  0  0  0
   18.1818    1.6281   17.2110 H   0  0  0  0  0  0  0  0  0  0  0  0
   18.5281    0.4151   19.2976 H   0  0  0  0  0  0  0  0  0  0  0  0
   15.0624   -0.9489   19.9102 H   0  0  0  0  0  0  0  0  0  0  0  0
   14.6622   -2.4472   19.3158 H   0  0  0  0  0  0  0  0  0  0  0  0
   15.1962   -4.6793   18.2839 H   0  0  0  0  0  0  0  0  0  0  0  0
   15.5825   -3.7533   16.8185 H   0  0  0  0  0  0  0  0  0  0  0  0
   12.8803   -3.7847   18.2572 H   0  0  0  0  0  0  0  0  0  0  0  0
   13.2374   -4.7031   16.8126 H   0  0  0  0  0  0  0  0  0  0  0  0
   11.6723   -3.7248   15.0084 H   0  0  0  0  0  0  0  0  0  0  0  0
   12.4957    0.5386   16.1360 H   0  0  0  0  0  0  0  0  0  0  0  0
   14.5869    1.3962   20.5936 H   0  0  0  0  0  0  0  0  0  0  0  0
   14.1591    2.4966   18.4397 H   0  0  0  0  0  0  0  0  0  0  0  0
  1  2  1  0
  2  3  2  0
  2  4  2  0
  2  5  1  0
  5  6  1  0
  6  7  1  0
  7  8  1  0
  8  9  2  0
  9 10  1  0
 10 11  2  0
 11 12  1  0
 12 13  1  0
 13 14  2  0
 13 15  1  0
 15 16  1  0
 16 17  1  0
 17 18  1  0
 18 19  2  0
 19 20  1  0
 20 21  1  0
 21 22  2  0
 11 23  1  0
 23 24  2  0
 24  8  1  0
 22 18  1  0
  1 25  1  0
  1 26  1  0
  1 27  1  0
  5 28  1  0
  5 29  1  0
  6 30  1  0
  6 31  1  0
  9 32  1  0
 10 33  1  0
 12 34  1  0
 15 35  1  0
 16 36  1  0
 16 37  1  0
 17 38  1  0
 17 39  1  0
 19 40  1  0
 21 41  1  0
 23 42  1  0
 24 43  1  0
M  END
>  <Energy>  (1246) 
38.87658598766258

>  <compound_id>  (1246) 
6686

>  <target_id>  (1246) 
1

>  <reference_id>  (1246) 
111

>  <inspiration_ids>  (1246) 
[111, 71]

>  <energy_score>  (1246) 
26.03071330021033

>  <distance_score>  (1246) 
2.0732789472598223

>  <path>  (1246) 
/opt/xchem-fragalysis-2/maxwin/BulkDock/SCRATCH/511018/C6686-P111/C6686-P111.minimised.mol

>  <scratch_subdir>  (1246) 
/opt/xchem-fragalysis-2/maxwin/BulkDock/SCRATCH/511018/C6686-P111

>  <fragmenstein_runtime>  (1246) 
4.04526686668396

>  <fragmenstein_outcome>  (1246) 
too moved

>  <fragmenstein_mode>  (1246) 
expansion

>  <fragmenstein_error>  (1246) 


$$$$
C6686-P71
     RDKit          3D

 43 44  0  0  0  0  0  0  0  0999 V2000
   13.9137    1.3566   12.0662 C   0  0  0  0  0  0  0  0  0  0  0  0
   15.2272    1.9364   13.1159 S   0  0  0  0  0  0  0  0  0  0  0  0
   16.4736    1.6604   12.4265 O   0  0  0  0  0  0  0  0  0  0  0  0
   14.8781    3.2816   13.5245 O   0  0  0  0  0  0  0  0  0  0  0  0
   15.1145    0.8643   14.5268 C   0  0  0  0  0  0  0  0  0  0  0  0
   16.1722    1.1701   15.5805 C   0  0  0  0  0  0  0  0  0  0  0  0
   15.6641    2.1247   16.5385 O   0  0  0  0  0  0  0  0  0  0  0  0
   16.0000    1.8459   17.8374 C   0  0  0  0  0  0  0  0  0  0  0  0
   17.2159    1.3088   18.2464 C   0  0  0  0  0  0  0  0  0  0  0  0
   17.2895    0.6852   19.4980 C   0  0  0  0  0  0  0  0  0  0  0  0
   16.1015    0.4802   20.1904 C   0  0  0  0  0  0  0  0  0  0  0  0
   15.5191   -0.7658   19.9270 N   0  0  0  0  0  0  0  0  0  0  0  0
   16.0585   -1.9752   19.1228 C   0  0  0  0  0  0  0  0  0  0  0  0
   17.0734   -2.1410   18.6373 O   0  0  0  0  0  0  0  0  0  0  0  0
   14.7832   -2.8414   19.0866 N   0  0  0  0  0  0  0  0  0  0  0  0
   14.4977   -4.0348   18.3599 C   0  0  0  0  0  0  0  0  0  0  0  0
   14.5640   -3.6749   16.8607 C   0  0  0  0  0  0  0  0  0  0  0  0
   13.3715   -2.9323   16.3331 C   0  0  0  0  0  0  0  0  0  0  0  0
   12.1507   -3.5098   16.0506 C   0  0  0  0  0  0  0  0  0  0  0  0
   11.1502   -2.4041   15.2258 S   0  0  0  0  0  0  0  0  0  0  0  0
   12.3333   -1.1996   15.4323 C   0  0  0  0  0  0  0  0  0  0  0  0
   13.4564   -1.5825   16.0015 N   0  0  0  0  0  0  0  0  0  0  0  0
   15.1174    1.4492   20.0587 C   0  0  0  0  0  0  0  0  0  0  0  0
   15.0086    2.0442   18.7966 C   0  0  0  0  0  0  0  0  0  0  0  0
   13.9056    1.9662   11.1603 H   0  0  0  0  0  0  0  0  0  0  0  0
   14.1011    0.3117   11.8119 H   0  0  0  0  0  0  0  0  0  0  0  0
   12.9653    1.4613   12.5963 H   0  0  0  0  0  0  0  0  0  0  0  0
   14.1110    0.9917   14.9360 H   0  0  0  0  0  0  0  0  0  0  0  0
   15.2468   -0.1516   14.1417 H   0  0  0  0  0  0  0  0  0  0  0  0
   16.4021    0.2155   16.0716 H   0  0  0  0  0  0  0  0  0  0  0  0
   17.0938    1.5699   15.1446 H   0  0  0  0  0  0  0  0  0  0  0  0
   18.0619    1.2412   17.5702 H   0  0  0  0  0  0  0  0  0  0  0  0
   18.1605    0.0666   19.7092 H   0  0  0  0  0  0  0  0  0  0  0  0
   14.6056   -0.9786   20.2853 H   0  0  0  0  0  0  0  0  0  0  0  0
   14.0368   -2.3625   19.5568 H   0  0  0  0  0  0  0  0  0  0  0  0
   13.5211   -4.4205   18.6642 H   0  0  0  0  0  0  0  0  0  0  0  0
   15.2792   -4.7623   18.5981 H   0  0  0  0  0  0  0  0  0  0  0  0
   14.6474   -4.6090   16.2933 H   0  0  0  0  0  0  0  0  0  0  0  0
   15.4723   -3.1057   16.6287 H   0  0  0  0  0  0  0  0  0  0  0  0
   11.8338   -4.5264   16.2307 H   0  0  0  0  0  0  0  0  0  0  0  0
   12.1581   -0.1873   15.0962 H   0  0  0  0  0  0  0  0  0  0  0  0
   14.2510    1.4658   20.7145 H   0  0  0  0  0  0  0  0  0  0  0  0
   14.0958    2.5708   18.5275 H   0  0  0  0  0  0  0  0  0  0  0  0
  1  2  1  0
  2  3  2  0
  2  4  2  0
  2  5  1  0
  5  6  1  0
  6  7  1  0
  7  8  1  0
  8  9  2  0
  9 10  1  0
 10 11  2  0
 11 12  1  0
 12 13  1  0
 13 14  2  0
 13 15  1  0
 15 16  1  0
 16 17  1  0
 17 18  1  0
 18 19  2  0
 19 20  1  0
 20 21  1  0
 21 22  2  0
 11 23  1  0
 23 24  2  0
 24  8  1  0
 22 18  1  0
  1 25  1  0
  1 26  1  0
  1 27  1  0
  5 28  1  0
  5 29  1  0
  6 30  1  0
  6 31  1  0
  9 32  1  0
 10 33  1  0
 12 34  1  0
 15 35  1  0
 16 36  1  0
 16 37  1  0
 17 38  1  0
 17 39  1  0
 19 40  1  0
 21 41  1  0
 23 42  1  0
 24 43  1  0
M  END
>  <Energy>  (1247) 
31.191168478837184

>  <compound_id>  (1247) 
6686

>  <target_id>  (1247) 
1

>  <reference_id>  (1247) 
71

>  <inspiration_ids>  (1247) 
[111, 71]

>  <energy_score>  (1247) 
18.345295791385254

>  <distance_score>  (1247) 
1.9814170456467326

>  <path>  (1247) 
/opt/xchem-fragalysis-2/maxwin/BulkDock/SCRATCH/511018/C6686-P71/C6686-P71.minimised.mol

>  <scratch_subdir>  (1247) 
/opt/xchem-fragalysis-2/maxwin/BulkDock/SCRATCH/511018/C6686-P71

>  <fragmenstein_runtime>  (1247) 
3.3767855167388916

>  <fragmenstein_outcome>  (1247) 
too moved

>  <fragmenstein_mode>  (1247) 
expansion

>  <fragmenstein_error>  (1247) 


$$$$
C6690-P111
     RDKit          3D

 41 42  0  0  0  0  0  0  0  0999 V2000
   13.9738    0.9464   11.9808 C   0  0  0  0  0  0  0  0  0  0  0  0
   14.9740    2.1018   12.8800 S   0  0  0  0  0  0  0  0  0  0  0  0
   16.3503    1.6528   12.8071 O   0  0  0  0  0  0  0  0  0  0  0  0
   14.6066    3.4232   12.4137 O   0  0  0  0  0  0  0  0  0  0  0  0
   14.4072    1.9555   14.5619 C   0  0  0  0  0  0  0  0  0  0  0  0
   14.4690    3.3296   15.2418 C   0  0  0  0  0  0  0  0  0  0  0  0
   14.1584    3.2871   16.6428 O   0  0  0  0  0  0  0  0  0  0  0  0
   15.1121    2.7349   17.4561 C   0  0  0  0  0  0  0  0  0  0  0  0
   14.6229    2.1283   18.6173 C   0  0  0  0  0  0  0  0  0  0  0  0
   15.3559    1.1039   19.1947 C   0  0  0  0  0  0  0  0  0  0  0  0
   16.5026    0.6955   18.5193 C   0  0  0  0  0  0  0  0  0  0  0  0
   16.5166   -0.6170   18.0700 N   0  0  0  0  0  0  0  0  0  0  0  0
   15.5827   -1.8078   18.4104 C   0  0  0  0  0  0  0  0  0  0  0  0
   14.7075   -1.8871   19.1788 O   0  0  0  0  0  0  0  0  0  0  0  0
   15.9531   -2.9029   17.4399 C   0  0  0  0  0  0  0  0  0  0  0  0
   14.6977   -3.6481   17.0326 C   0  0  0  0  0  0  0  0  0  0  0  0
   13.6017   -2.9120   16.3190 C   0  0  0  0  0  0  0  0  0  0  0  0
   12.3194   -3.4190   16.1953 C   0  0  0  0  0  0  0  0  0  0  0  0
   11.3678   -2.4169   15.1994 S   0  0  0  0  0  0  0  0  0  0  0  0
   12.6983   -1.3632   15.0413 C   0  0  0  0  0  0  0  0  0  0  0  0
   13.8122   -1.7120   15.6518 N   0  0  0  0  0  0  0  0  0  0  0  0
   17.1905    1.5707   17.6839 C   0  0  0  0  0  0  0  0  0  0  0  0
   16.4589    2.6019   17.1144 C   0  0  0  0  0  0  0  0  0  0  0  0
   12.9231    1.2173   12.0993 H   0  0  0  0  0  0  0  0  0  0  0  0
   14.1628   -0.0573   12.3653 H   0  0  0  0  0  0  0  0  0  0  0  0
   14.2566    1.0010   10.9276 H   0  0  0  0  0  0  0  0  0  0  0  0
   13.3647    1.6294   14.5451 H   0  0  0  0  0  0  0  0  0  0  0  0
   14.9989    1.1876   15.0647 H   0  0  0  0  0  0  0  0  0  0  0  0
   15.4093    3.8604   15.0554 H   0  0  0  0  0  0  0  0  0  0  0  0
   13.6962    3.9690   14.7969 H   0  0  0  0  0  0  0  0  0  0  0  0
   13.6054    2.3146   18.9475 H   0  0  0  0  0  0  0  0  0  0  0  0
   14.8713    0.4689   19.9327 H   0  0  0  0  0  0  0  0  0  0  0  0
   17.2224   -0.9185   17.4108 H   0  0  0  0  0  0  0  0  0  0  0  0
   16.6584   -3.5772   17.9372 H   0  0  0  0  0  0  0  0  0  0  0  0
   16.4338   -2.5065   16.5394 H   0  0  0  0  0  0  0  0  0  0  0  0
   15.0139   -4.4529   16.3600 H   0  0  0  0  0  0  0  0  0  0  0  0
   14.2660   -4.1302   17.9196 H   0  0  0  0  0  0  0  0  0  0  0  0
   11.9250   -4.3373   16.6081 H   0  0  0  0  0  0  0  0  0  0  0  0
   12.6081   -0.4688   14.4476 H   0  0  0  0  0  0  0  0  0  0  0  0
   18.1468    1.3032   17.2430 H   0  0  0  0  0  0  0  0  0  0  0  0
   16.9134    3.1638   16.3063 H   0  0  0  0  0  0  0  0  0  0  0  0
  1  2  1  0
  2  3  2  0
  2  4  2  0
  2  5  1  0
  5  6  1  0
  6  7  1  0
  7  8  1  0
  8  9  2  0
  9 10  1  0
 10 11  2  0
 11 12  1  0
 12 13  1  0
 13 14  2  0
 13 15  1  0
 15 16  1  0
 16 17  1  0
 17 18  2  0
 18 19  1  0
 19 20  1  0
 20 21  2  0
 11 22  1  0
 22 23  2  0
 23  8  1  0
 21 17  1  0
  1 24  1  0
  1 25  1  0
  1 26  1  0
  5 27  1  0
  5 28  1  0
  6 29  1  0
  6 30  1  0
  9 31  1  0
 10 32  1  0
 12 33  1  0
 15 34  1  0
 15 35  1  0
 16 36  1  0
 16 37  1  0
 18 38  1  0
 20 39  1  0
 22 40  1  0
 23 41  1  0
M  END
>  <Energy>  (1248) 
43.064947008903907

>  <compound_id>  (1248) 
6690

>  <target_id>  (1248) 
1

>  <reference_id>  (1248) 
111

>  <inspiration_ids>  (1248) 
[111, 71]

>  <energy_score>  (1248) 
-50.487332522197676

>  <distance_score>  (1248) 
1.6695031397045368

>  <path>  (1248) 
/opt/xchem-fragalysis-2/maxwin/BulkDock/SCRATCH/511018/C6690-P111/C6690-P111.minimised.mol

>  <scratch_subdir>  (1248) 
/opt/xchem-fragalysis-2/maxwin/BulkDock/SCRATCH/511018/C6690-P111

>  <fragmenstein_runtime>  (1248) 
4.679872751235962

>  <fragmenstein_outcome>  (1248) 
too moved

>  <fragmenstein_mode>  (1248) 
expansion

>  <fragmenstein_error>  (1248) 


$$$$
C6690-P71
     RDKit          3D

 41 42  0  0  0  0  0  0  0  0999 V2000
   13.9578    0.8373   12.0780 C   0  0  0  0  0  0  0  0  0  0  0  0
   15.0580    2.0088   12.8259 S   0  0  0  0  0  0  0  0  0  0  0  0
   16.4171    1.6085   12.5215 O   0  0  0  0  0  0  0  0  0  0  0  0
   14.5754    3.3265   12.4649 O   0  0  0  0  0  0  0  0  0  0  0  0
   14.7810    1.8050   14.5669 C   0  0  0  0  0  0  0  0  0  0  0  0
   15.3235    3.0236   15.3159 C   0  0  0  0  0  0  0  0  0  0  0  0
   14.8502    3.0886   16.6680 O   0  0  0  0  0  0  0  0  0  0  0  0
   15.4093    2.2377   17.5776 C   0  0  0  0  0  0  0  0  0  0  0  0
   14.6155    1.9741   18.6993 C   0  0  0  0  0  0  0  0  0  0  0  0
   14.8392    0.8178   19.4300 C   0  0  0  0  0  0  0  0  0  0  0  0
   15.8266   -0.0493   18.9794 C   0  0  0  0  0  0  0  0  0  0  0  0
   15.4363   -1.3714   18.8391 N   0  0  0  0  0  0  0  0  0  0  0  0
   16.1771   -2.5773   18.2107 C   0  0  0  0  0  0  0  0  0  0  0  0
   17.2611   -2.6611   17.7841 O   0  0  0  0  0  0  0  0  0  0  0  0
   15.1716   -3.7011   18.1313 C   0  0  0  0  0  0  0  0  0  0  0  0
   14.6648   -3.6868   16.6871 C   0  0  0  0  0  0  0  0  0  0  0  0
   13.4776   -2.8284   16.3688 C   0  0  0  0  0  0  0  0  0  0  0  0
   12.2242   -3.3089   16.0384 C   0  0  0  0  0  0  0  0  0  0  0  0
   11.2585   -2.0549   15.3949 S   0  0  0  0  0  0  0  0  0  0  0  0
   12.4950   -0.9429   15.7710 C   0  0  0  0  0  0  0  0  0  0  0  0
   13.6083   -1.4528   16.2518 N   0  0  0  0  0  0  0  0  0  0  0  0
   16.8409    0.3988   18.1382 C   0  0  0  0  0  0  0  0  0  0  0  0
   16.6088    1.5524   17.4000 C   0  0  0  0  0  0  0  0  0  0  0  0
   14.0715    0.9069   10.9944 H   0  0  0  0  0  0  0  0  0  0  0  0
   12.9326    1.0811   12.3626 H   0  0  0  0  0  0  0  0  0  0  0  0
   14.2255   -0.1646   12.4186 H   0  0  0  0  0  0  0  0  0  0  0  0
   13.7011    1.7383   14.7217 H   0  0  0  0  0  0  0  0  0  0  0  0
   15.2418    0.8695   14.8923 H   0  0  0  0  0  0  0  0  0  0  0  0
   16.4133    3.1121   15.2479 H   0  0  0  0  0  0  0  0  0  0  0  0
   14.9409    3.9394   14.8513 H   0  0  0  0  0  0  0  0  0  0  0  0
   13.7275    2.5735   18.8879 H   0  0  0  0  0  0  0  0  0  0  0  0
   14.1067    0.4976   20.1636 H   0  0  0  0  0  0  0  0  0  0  0  0
   14.4754   -1.6263   19.0285 H   0  0  0  0  0  0  0  0  0  0  0  0
   14.3634   -3.6197   18.8635 H   0  0  0  0  0  0  0  0  0  0  0  0
   15.7109   -4.6325   18.3395 H   0  0  0  0  0  0  0  0  0  0  0  0
   15.4679   -3.4227   15.9859 H   0  0  0  0  0  0  0  0  0  0  0  0
   14.3928   -4.7162   16.4313 H   0  0  0  0  0  0  0  0  0  0  0  0
   11.8658   -4.3274   16.0652 H   0  0  0  0  0  0  0  0  0  0  0  0
   12.3614    0.1174   15.6129 H   0  0  0  0  0  0  0  0  0  0  0  0
   17.6658   -0.2458   17.8469 H   0  0  0  0  0  0  0  0  0  0  0  0
   17.3114    1.7981   16.6121 H   0  0  0  0  0  0  0  0  0  0  0  0
  1  2  1  0
  2  3  2  0
  2  4  2  0
  2  5  1  0
  5  6  1  0
  6  7  1  0
  7  8  1  0
  8  9  2  0
  9 10  1  0
 10 11  2  0
 11 12  1  0
 12 13  1  0
 13 14  2  0
 13 15  1  0
 15 16  1  0
 16 17  1  0
 17 18  2  0
 18 19  1  0
 19 20  1  0
 20 21  2  0
 11 22  1  0
 22 23  2  0
 23  8  1  0
 21 17  1  0
  1 24  1  0
  1 25  1  0
  1 26  1  0
  5 27  1  0
  5 28  1  0
  6 29  1  0
  6 30  1  0
  9 31  1  0
 10 32  1  0
 12 33  1  0
 15 34  1  0
 15 35  1  0
 16 36  1  0
 16 37  1  0
 18 38  1  0
 20 39  1  0
 22 40  1  0
 23 41  1  0
M  END
>  <Energy>  (1249) 
32.121844329616586

>  <compound_id>  (1249) 
6690

>  <target_id>  (1249) 
1

>  <reference_id>  (1249) 
71

>  <inspiration_ids>  (1249) 
[111, 71]

>  <energy_score>  (1249) 
-61.430435201483874

>  <distance_score>  (1249) 
1.8276266200251365

>  <path>  (1249) 
/opt/xchem-fragalysis-2/maxwin/BulkDock/SCRATCH/511018/C6690-P71/C6690-P71.minimised.mol

>  <scratch_subdir>  (1249) 
/opt/xchem-fragalysis-2/maxwin/BulkDock/SCRATCH/511018/C6690-P71

>  <fragmenstein_runtime>  (1249) 
4.97857666015625

>  <fragmenstein_outcome>  (1249) 
too moved

>  <fragmenstein_mode>  (1249) 
expansion

>  <fragmenstein_error>  (1249) 


$$$$
C6683-P111
     RDKit          3D

 33 34  0  0  0  0  0  0  0  0999 V2000
   14.7813    2.9054   13.3712 O   0  0  0  0  0  0  0  0  0  0  0  0
   15.7552    2.2570   13.7780 N   0  0  0  0  0  0  0  0  0  0  0  0
   16.5227    1.6085   13.0527 O   0  0  0  0  0  0  0  0  0  0  0  0
   16.0078    2.2562   15.2359 C   0  0  0  0  0  0  0  0  0  0  0  0
   15.1572    2.9907   16.0804 C   0  0  0  0  0  0  0  0  0  0  0  0
   15.2990    2.8881   17.4682 C   0  0  0  0  0  0  0  0  0  0  0  0
   16.2803    2.0550   17.9947 C   0  0  0  0  0  0  0  0  0  0  0  0
   16.2378    1.8653   19.3387 O   0  0  0  0  0  0  0  0  0  0  0  0
   16.1372    0.4731   19.6516 C   0  0  0  0  0  0  0  0  0  0  0  0
   14.8867   -0.1772   19.0814 C   0  0  0  0  0  0  0  0  0  0  0  0
   15.1811   -1.4935   17.9274 S   0  0  0  0  0  0  0  0  0  0  0  0
   16.6085   -1.7412   17.8346 O   0  0  0  0  0  0  0  0  0  0  0  0
   14.2929   -2.5646   18.3202 O   0  0  0  0  0  0  0  0  0  0  0  0
   14.6303   -0.9164   16.3479 C   0  0  0  0  0  0  0  0  0  0  0  0
   13.2911   -1.3850   15.9081 C   0  0  0  0  0  0  0  0  0  0  0  0
   12.8584   -2.6911   15.7726 C   0  0  0  0  0  0  0  0  0  0  0  0
   11.3188   -2.7279   15.0428 S   0  0  0  0  0  0  0  0  0  0  0  0
   11.3227   -1.0192   14.9740 C   0  0  0  0  0  0  0  0  0  0  0  0
   12.3754   -0.4247   15.4937 N   0  0  0  0  0  0  0  0  0  0  0  0
   17.1870    1.3880   17.1706 C   0  0  0  0  0  0  0  0  0  0  0  0
   17.0405    1.4705   15.7835 C   0  0  0  0  0  0  0  0  0  0  0  0
   14.3595    3.6117   15.6766 H   0  0  0  0  0  0  0  0  0  0  0  0
   14.6175    3.4201   18.1282 H   0  0  0  0  0  0  0  0  0  0  0  0
   16.0461    0.4498   20.7452 H   0  0  0  0  0  0  0  0  0  0  0  0
   17.0785   -0.0462   19.4485 H   0  0  0  0  0  0  0  0  0  0  0  0
   14.1677    0.5218   18.6476 H   0  0  0  0  0  0  0  0  0  0  0  0
   14.3644   -0.6632   19.9156 H   0  0  0  0  0  0  0  0  0  0  0  0
   14.6263    0.1692   16.3865 H   0  0  0  0  0  0  0  0  0  0  0  0
   15.3799   -1.2239   15.6108 H   0  0  0  0  0  0  0  0  0  0  0  0
   13.3724   -3.6058   16.0370 H   0  0  0  0  0  0  0  0  0  0  0  0
   10.4996   -0.4719   14.5309 H   0  0  0  0  0  0  0  0  0  0  0  0
   17.9854    0.7759   17.5842 H   0  0  0  0  0  0  0  0  0  0  0  0
   17.7201    0.9115   15.1418 H   0  0  0  0  0  0  0  0  0  0  0  0
  1  2  2  0
  2  3  1  0
  2  4  1  0
  4  5  2  0
  5  6  1  0
  6  7  2  0
  7  8  1  0
  8  9  1  0
  9 10  1  0
 10 11  1  0
 11 12  2  0
 11 13  2  0
 11 14  1  0
 14 15  1  0
 15 16  2  0
 16 17  1  0
 17 18  1  0
 18 19  2  0
  7 20  1  0
 20 21  2  0
 21  4  1  0
 19 15  1  0
  5 22  1  0
  6 23  1  0
  9 24  1  0
  9 25  1  0
 10 26  1  0
 10 27  1  0
 14 28  1  0
 14 29  1  0
 16 30  1  0
 18 31  1  0
 20 32  1  0
 21 33  1  0
M  CHG  2   2   1   3  -1
M  END
>  <Energy>  (1250) 
74.521295890264128

>  <compound_id>  (1250) 
6683

>  <target_id>  (1250) 
1

>  <reference_id>  (1250) 
111

>  <inspiration_ids>  (1250) 
[111, 71]

>  <energy_score>  (1250) 
-64.76807898872207

>  <distance_score>  (1250) 
2.16129359611604

>  <path>  (1250) 
/opt/xchem-fragalysis-2/maxwin/BulkDock/SCRATCH/511018/C6683-P111/C6683-P111.minimised.mol

>  <scratch_subdir>  (1250) 
/opt/xchem-fragalysis-2/maxwin/BulkDock/SCRATCH/511018/C6683-P111

>  <fragmenstein_runtime>  (1250) 
3.3797171115875244

>  <fragmenstein_outcome>  (1250) 
too moved

>  <fragmenstein_mode>  (1250) 
expansion

>  <fragmenstein_error>  (1250) 


$$$$
C6683-P71
     RDKit          3D

 33 34  0  0  0  0  0  0  0  0999 V2000
   14.4721    2.9671   13.4412 O   0  0  0  0  0  0  0  0  0  0  0  0
   15.4765    2.3497   13.8190 N   0  0  0  0  0  0  0  0  0  0  0  0
   16.2949    1.8064   13.0612 O   0  0  0  0  0  0  0  0  0  0  0  0
   15.7148    2.2743   15.2759 C   0  0  0  0  0  0  0  0  0  0  0  0
   14.7587    2.7823   16.1744 C   0  0  0  0  0  0  0  0  0  0  0  0
   14.9312    2.5985   17.5556 C   0  0  0  0  0  0  0  0  0  0  0  0
   16.0523    1.9170   18.0196 C   0  0  0  0  0  0  0  0  0  0  0  0
   16.0698    1.6202   19.3431 O   0  0  0  0  0  0  0  0  0  0  0  0
   16.4869    0.2798   19.6012 C   0  0  0  0  0  0  0  0  0  0  0  0
   15.3547   -0.7148   19.4796 C   0  0  0  0  0  0  0  0  0  0  0  0
   15.1464   -1.5198   17.9102 S   0  0  0  0  0  0  0  0  0  0  0  0
   14.6781   -2.8608   18.2140 O   0  0  0  0  0  0  0  0  0  0  0  0
   16.3369   -1.3344   17.1098 O   0  0  0  0  0  0  0  0  0  0  0  0
   13.8708   -0.6148   17.1113 C   0  0  0  0  0  0  0  0  0  0  0  0
   12.8687   -1.3400   16.3040 C   0  0  0  0  0  0  0  0  0  0  0  0
   12.8431   -2.6469   15.8622 C   0  0  0  0  0  0  0  0  0  0  0  0
   11.4677   -2.9036   14.8844 S   0  0  0  0  0  0  0  0  0  0  0  0
   11.0166   -1.2713   15.0965 C   0  0  0  0  0  0  0  0  0  0  0  0
   11.7912   -0.5665   15.8873 N   0  0  0  0  0  0  0  0  0  0  0  0
   17.0606    1.5250   17.1399 C   0  0  0  0  0  0  0  0  0  0  0  0
   16.8767    1.6616   15.7646 C   0  0  0  0  0  0  0  0  0  0  0  0
   13.8562    3.2756   15.8168 H   0  0  0  0  0  0  0  0  0  0  0  0
   14.1656    2.9438   18.2476 H   0  0  0  0  0  0  0  0  0  0  0  0
   16.7746    0.2979   20.6606 H   0  0  0  0  0  0  0  0  0  0  0  0
   17.4006   -0.0334   19.0887 H   0  0  0  0  0  0  0  0  0  0  0  0
   14.3954   -0.2850   19.7811 H   0  0  0  0  0  0  0  0  0  0  0  0
   15.5614   -1.5386   20.1752 H   0  0  0  0  0  0  0  0  0  0  0  0
   14.3699    0.0774   16.4353 H   0  0  0  0  0  0  0  0  0  0  0  0
   13.3573   -0.0201   17.8683 H   0  0  0  0  0  0  0  0  0  0  0  0
   13.5474   -3.4477   16.0408 H   0  0  0  0  0  0  0  0  0  0  0  0
   10.1371   -0.8487   14.6274 H   0  0  0  0  0  0  0  0  0  0  0  0
   17.9828    1.0644   17.4819 H   0  0  0  0  0  0  0  0  0  0  0  0
   17.6394    1.2809   15.0875 H   0  0  0  0  0  0  0  0  0  0  0  0
  1  2  2  0
  2  3  1  0
  2  4  1  0
  4  5  2  0
  5  6  1  0
  6  7  2  0
  7  8  1  0
  8  9  1  0
  9 10  1  0
 10 11  1  0
 11 12  2  0
 11 13  2  0
 11 14  1  0
 14 15  1  0
 15 16  2  0
 16 17  1  0
 17 18  1  0
 18 19  2  0
  7 20  1  0
 20 21  2  0
 21  4  1  0
 19 15  1  0
  5 22  1  0
  6 23  1  0
  9 24  1  0
  9 25  1  0
 10 26  1  0
 10 27  1  0
 14 28  1  0
 14 29  1  0
 16 30  1  0
 18 31  1  0
 20 32  1  0
 21 33  1  0
M  CHG  2   2   1   3  -1
M  END
>  <Energy>  (1251) 
73.333566917214952

>  <compound_id>  (1251) 
6683

>  <target_id>  (1251) 
1

>  <reference_id>  (1251) 
71

>  <inspiration_ids>  (1251) 
[111, 71]

>  <energy_score>  (1251) 
-65.95580796177146

>  <distance_score>  (1251) 
2.2022622620733254

>  <path>  (1251) 
/opt/xchem-fragalysis-2/maxwin/BulkDock/SCRATCH/511018/C6683-P71/C6683-P71.minimised.mol

>  <scratch_subdir>  (1251) 
/opt/xchem-fragalysis-2/maxwin/BulkDock/SCRATCH/511018/C6683-P71

>  <fragmenstein_runtime>  (1251) 
3.546839475631714

>  <fragmenstein_outcome>  (1251) 
too moved

>  <fragmenstein_mode>  (1251) 
expansion

>  <fragmenstein_error>  (1251) 


$$$$
C6691-P111
     RDKit          3D

 43 44  0  0  0  0  0  0  0  0999 V2000
   14.5625   -0.7485   17.7486 C   0  0  0  0  0  0  0  0  0  0  0  0
   15.5323   -1.7700   17.1651 N   0  0  0  0  0  0  0  0  0  0  0  0
   14.4119   -2.7035   17.4837 C   0  0  0  0  0  0  0  0  0  0  0  0
   13.3788   -2.7284   16.3585 C   0  0  0  0  0  0  0  0  0  0  0  0
   12.2713   -3.5473   16.3022 C   0  0  0  0  0  0  0  0  0  0  0  0
   11.2596   -3.0755   15.0060 S   0  0  0  0  0  0  0  0  0  0  0  0
   12.4058   -1.9168   14.5236 C   0  0  0  0  0  0  0  0  0  0  0  0
   13.4603   -1.8079   15.2983 N   0  0  0  0  0  0  0  0  0  0  0  0
   16.8353   -1.6182   17.7769 C   0  0  0  0  0  0  0  0  0  0  0  0
   17.2954   -2.1323   18.7299 O   0  0  0  0  0  0  0  0  0  0  0  0
   17.3592   -0.5790   16.9225 N   0  0  0  0  0  0  0  0  0  0  0  0
   18.5143    0.1871   17.0231 C   0  0  0  0  0  0  0  0  0  0  0  0
   18.4078    1.1190   18.0632 C   0  0  0  0  0  0  0  0  0  0  0  0
   18.2780    2.4643   17.7171 C   0  0  0  0  0  0  0  0  0  0  0  0
   18.3998    2.8385   16.3758 C   0  0  0  0  0  0  0  0  0  0  0  0
   17.8159    4.0280   16.0233 O   0  0  0  0  0  0  0  0  0  0  0  0
   17.0717    3.9849   14.7851 C   0  0  0  0  0  0  0  0  0  0  0  0
   15.9127    2.9833   14.8018 C   0  0  0  0  0  0  0  0  0  0  0  0
   15.2772    2.7409   13.1599 S   0  0  0  0  0  0  0  0  0  0  0  0
   14.0475    1.4774   13.3729 C   0  0  0  0  0  0  0  0  0  0  0  0
   16.3372    2.1814   12.3433 O   0  0  0  0  0  0  0  0  0  0  0  0
   14.5941    3.9569   12.7663 O   0  0  0  0  0  0  0  0  0  0  0  0
   18.9314    1.9500   15.4443 C   0  0  0  0  0  0  0  0  0  0  0  0
   18.9885    0.6035   15.7763 C   0  0  0  0  0  0  0  0  0  0  0  0
   14.5401   -0.7926   18.8500 H   0  0  0  0  0  0  0  0  0  0  0  0
   13.5645   -0.6169   17.3168 H   0  0  0  0  0  0  0  0  0  0  0  0
   15.0271    0.2309   17.5580 H   0  0  0  0  0  0  0  0  0  0  0  0
   14.0043   -2.7084   18.5075 H   0  0  0  0  0  0  0  0  0  0  0  0
   14.9023   -3.6886   17.4331 H   0  0  0  0  0  0  0  0  0  0  0  0
   11.9900   -4.3473   16.9709 H   0  0  0  0  0  0  0  0  0  0  0  0
   12.2536   -1.3062   13.6438 H   0  0  0  0  0  0  0  0  0  0  0  0
   16.7281   -0.4407   16.1446 H   0  0  0  0  0  0  0  0  0  0  0  0
   18.1071    0.7997   19.0593 H   0  0  0  0  0  0  0  0  0  0  0  0
   17.9405    3.1836   18.4580 H   0  0  0  0  0  0  0  0  0  0  0  0
   16.6599    4.9914   14.6430 H   0  0  0  0  0  0  0  0  0  0  0  0
   17.7563    3.8358   13.9426 H   0  0  0  0  0  0  0  0  0  0  0  0
   16.2023    1.9982   15.1736 H   0  0  0  0  0  0  0  0  0  0  0  0
   15.1004    3.3503   15.4368 H   0  0  0  0  0  0  0  0  0  0  0  0
   14.5329    0.5778   13.7556 H   0  0  0  0  0  0  0  0  0  0  0  0
   13.5941    1.2731   12.4007 H   0  0  0  0  0  0  0  0  0  0  0  0
   13.2898    1.8360   14.0719 H   0  0  0  0  0  0  0  0  0  0  0  0
   19.1456    2.2468   14.4226 H   0  0  0  0  0  0  0  0  0  0  0  0
   19.1628   -0.1276   14.9890 H   0  0  0  0  0  0  0  0  0  0  0  0
  1  2  1  0
  2  3  1  0
  3  4  1  0
  4  5  2  0
  5  6  1  0
  6  7  1  0
  7  8  2  0
  2  9  1  0
  9 10  2  0
  9 11  1  0
 11 12  1  0
 12 13  2  0
 13 14  1  0
 14 15  2  0
 15 16  1  0
 16 17  1  0
 17 18  1  0
 18 19  1  0
 19 20  1  0
 19 21  2  0
 19 22  2  0
 15 23  1  0
 23 24  2  0
  8  4  1  0
 24 12  1  0
  1 25  1  0
  1 26  1  0
  1 27  1  0
  3 28  1  0
  3 29  1  0
  5 30  1  0
  7 31  1  0
 11 32  1  0
 13 33  1  0
 14 34  1  0
 17 35  1  0
 17 36  1  0
 18 37  1  0
 18 38  1  0
 20 39  1  0
 20 40  1  0
 20 41  1  0
 23 42  1  0
 24 43  1  0
M  END
>  <Energy>  (1252) 
82.137501101717774

>  <compound_id>  (1252) 
6691

>  <target_id>  (1252) 
1

>  <reference_id>  (1252) 
111

>  <inspiration_ids>  (1252) 
[111, 71]

>  <energy_score>  (1252) 
51.53340833100199

>  <distance_score>  (1252) 
2.3309706856603216

>  <path>  (1252) 
/opt/xchem-fragalysis-2/maxwin/BulkDock/SCRATCH/511018/C6691-P111/C6691-P111.minimised.mol

>  <scratch_subdir>  (1252) 
/opt/xchem-fragalysis-2/maxwin/BulkDock/SCRATCH/511018/C6691-P111

>  <fragmenstein_runtime>  (1252) 
6.308283090591431

>  <fragmenstein_outcome>  (1252) 
too moved

>  <fragmenstein_mode>  (1252) 
expansion

>  <fragmenstein_error>  (1252) 


$$$$
C6691-P71
     RDKit          3D

 43 44  0  0  0  0  0  0  0  0999 V2000
   14.5212    0.2093   16.2913 C   0  0  0  0  0  0  0  0  0  0  0  0
   15.2699   -0.9328   16.9627 N   0  0  0  0  0  0  0  0  0  0  0  0
   13.9105   -1.2156   17.5242 C   0  0  0  0  0  0  0  0  0  0  0  0
   12.8541   -1.7373   16.5841 C   0  0  0  0  0  0  0  0  0  0  0  0
   12.7731   -2.9987   16.0334 C   0  0  0  0  0  0  0  0  0  0  0  0
   11.4819   -3.0521   14.9158 S   0  0  0  0  0  0  0  0  0  0  0  0
   11.0936   -1.4306   15.2693 C   0  0  0  0  0  0  0  0  0  0  0  0
   11.8456   -0.8564   16.1811 N   0  0  0  0  0  0  0  0  0  0  0  0
   16.4657   -0.4291   17.6035 C   0  0  0  0  0  0  0  0  0  0  0  0
   16.6344   -0.0376   18.6985 O   0  0  0  0  0  0  0  0  0  0  0  0
   17.3645   -0.4601   16.4625 N   0  0  0  0  0  0  0  0  0  0  0  0
   18.6480    0.0479   16.3019 C   0  0  0  0  0  0  0  0  0  0  0  0
   18.9350    1.1850   17.0615 C   0  0  0  0  0  0  0  0  0  0  0  0
   19.2742    2.3406   16.3701 C   0  0  0  0  0  0  0  0  0  0  0  0
   19.4230    2.2778   14.9835 C   0  0  0  0  0  0  0  0  0  0  0  0
   19.2412    3.4537   14.3054 O   0  0  0  0  0  0  0  0  0  0  0  0
   18.2743    3.3627   13.2333 C   0  0  0  0  0  0  0  0  0  0  0  0
   16.8890    2.8849   13.6821 C   0  0  0  0  0  0  0  0  0  0  0  0
   15.7964    2.7537   12.2871 S   0  0  0  0  0  0  0  0  0  0  0  0
   14.3241    2.0298   12.9640 C   0  0  0  0  0  0  0  0  0  0  0  0
   16.3622    1.7886   11.3637 O   0  0  0  0  0  0  0  0  0  0  0  0
   15.4615    4.0957   11.8564 O   0  0  0  0  0  0  0  0  0  0  0  0
   19.5502    1.0511   14.3331 C   0  0  0  0  0  0  0  0  0  0  0  0
   19.1572   -0.0950   15.0095 C   0  0  0  0  0  0  0  0  0  0  0  0
   13.9763    0.9182   16.9351 H   0  0  0  0  0  0  0  0  0  0  0  0
   14.0070   -0.0995   15.3746 H   0  0  0  0  0  0  0  0  0  0  0  0
   15.3007    0.8699   15.8793 H   0  0  0  0  0  0  0  0  0  0  0  0
   13.5721   -0.4374   18.2240 H   0  0  0  0  0  0  0  0  0  0  0  0
   14.1189   -2.0480   18.2154 H   0  0  0  0  0  0  0  0  0  0  0  0
   13.4159   -3.8510   16.2018 H   0  0  0  0  0  0  0  0  0  0  0  0
   10.2748   -0.9191   14.7774 H   0  0  0  0  0  0  0  0  0  0  0  0
   16.9129   -0.9439   15.6985 H   0  0  0  0  0  0  0  0  0  0  0  0
   18.6153    1.2755   18.0966 H   0  0  0  0  0  0  0  0  0  0  0  0
   19.2586    3.3006   16.8786 H   0  0  0  0  0  0  0  0  0  0  0  0
   18.1837    4.3762   12.8246 H   0  0  0  0  0  0  0  0  0  0  0  0
   18.6807    2.7544   12.4168 H   0  0  0  0  0  0  0  0  0  0  0  0
   16.9185    1.8966   14.1456 H   0  0  0  0  0  0  0  0  0  0  0  0
   16.4524    3.5831   14.4025 H   0  0  0  0  0  0  0  0  0  0  0  0
   14.5610    1.0255   13.3171 H   0  0  0  0  0  0  0  0  0  0  0  0
   13.5742    1.9771   12.1718 H   0  0  0  0  0  0  0  0  0  0  0  0
   13.9633    2.6574   13.7806 H   0  0  0  0  0  0  0  0  0  0  0  0
   19.7776    0.9943   13.2731 H   0  0  0  0  0  0  0  0  0  0  0  0
   19.0128   -1.0150   14.4488 H   0  0  0  0  0  0  0  0  0  0  0  0
  1  2  1  0
  2  3  1  0
  3  4  1  0
  4  5  2  0
  5  6  1  0
  6  7  1  0
  7  8  2  0
  2  9  1  0
  9 10  2  0
  9 11  1  0
 11 12  1  0
 12 13  2  0
 13 14  1  0
 14 15  2  0
 15 16  1  0
 16 17  1  0
 17 18  1  0
 18 19  1  0
 19 20  1  0
 19 21  2  0
 19 22  2  0
 15 23  1  0
 23 24  2  0
  8  4  1  0
 24 12  1  0
  1 25  1  0
  1 26  1  0
  1 27  1  0
  3 28  1  0
  3 29  1  0
  5 30  1  0
  7 31  1  0
 11 32  1  0
 13 33  1  0
 14 34  1  0
 17 35  1  0
 17 36  1  0
 18 37  1  0
 18 38  1  0
 20 39  1  0
 20 40  1  0
 20 41  1  0
 23 42  1  0
 24 43  1  0
M  END
>  <Energy>  (1253) 
67.328235998462318

>  <compound_id>  (1253) 
6691

>  <target_id>  (1253) 
1

>  <reference_id>  (1253) 
71

>  <inspiration_ids>  (1253) 
[111, 71]

>  <energy_score>  (1253) 
36.72414322774759

>  <distance_score>  (1253) 
2.8327394285577565

>  <path>  (1253) 
/opt/xchem-fragalysis-2/maxwin/BulkDock/SCRATCH/511018/C6691-P71/C6691-P71.minimised.mol

>  <scratch_subdir>  (1253) 
/opt/xchem-fragalysis-2/maxwin/BulkDock/SCRATCH/511018/C6691-P71

>  <fragmenstein_runtime>  (1253) 
6.223246097564697

>  <fragmenstein_outcome>  (1253) 
too moved

>  <fragmenstein_mode>  (1253) 
expansion

>  <fragmenstein_error>  (1253) 


$$$$
C6684-P111
     RDKit          3D

 34 35  0  0  0  0  0  0  0  0999 V2000
   18.3034   -0.1274   19.5666 O   0  0  0  0  0  0  0  0  0  0  0  0
   17.1908   -1.0580   19.6880 S   0  0  0  0  0  0  0  0  0  0  0  0
   17.4194   -2.3303   20.3515 O   0  0  0  0  0  0  0  0  0  0  0  0
   15.8849   -0.2327   20.5764 C   0  0  0  0  0  0  0  0  0  0  0  0
   15.4732    1.0530   19.9574 C   0  0  0  0  0  0  0  0  0  0  0  0
   15.4690    2.2899   20.5736 C   0  0  0  0  0  0  0  0  0  0  0  0
   14.9896    3.5038   19.4606 S   0  0  0  0  0  0  0  0  0  0  0  0
   14.7973    2.2979   18.2593 C   0  0  0  0  0  0  0  0  0  0  0  0
   15.0189    1.0620   18.6467 N   0  0  0  0  0  0  0  0  0  0  0  0
   16.5949   -1.3814   18.0481 C   0  0  0  0  0  0  0  0  0  0  0  0
   15.2430   -2.1006   17.9824 C   0  0  0  0  0  0  0  0  0  0  0  0
   15.3841   -3.4824   18.2486 O   0  0  0  0  0  0  0  0  0  0  0  0
   14.6363   -1.9788   16.6036 C   0  0  0  0  0  0  0  0  0  0  0  0
   15.4695   -1.9850   15.4900 C   0  0  0  0  0  0  0  0  0  0  0  0
   15.1024   -1.2269   14.4017 C   0  0  0  0  0  0  0  0  0  0  0  0
   13.8827   -0.5533   14.4279 C   0  0  0  0  0  0  0  0  0  0  0  0
   13.7282    0.6925   13.6178 C   0  0  0  0  0  0  0  0  0  0  0  0
   12.9060    1.5926   14.2279 F   0  0  0  0  0  0  0  0  0  0  0  0
   13.2471    0.4673   12.3792 F   0  0  0  0  0  0  0  0  0  0  0  0
   14.9058    1.3596   13.4399 F   0  0  0  0  0  0  0  0  0  0  0  0
   12.8984   -0.9263   15.3429 C   0  0  0  0  0  0  0  0  0  0  0  0
   13.2851   -1.6624   16.4461 C   0  0  0  0  0  0  0  0  0  0  0  0
   15.0371   -0.9161   20.6670 H   0  0  0  0  0  0  0  0  0  0  0  0
   16.2724   -0.0646   21.5880 H   0  0  0  0  0  0  0  0  0  0  0  0
   15.7472    2.5423   21.5877 H   0  0  0  0  0  0  0  0  0  0  0  0
   14.4860    2.5464   17.2527 H   0  0  0  0  0  0  0  0  0  0  0  0
   16.5873   -0.4207   17.5247 H   0  0  0  0  0  0  0  0  0  0  0  0
   17.3829   -1.9965   17.5950 H   0  0  0  0  0  0  0  0  0  0  0  0
   14.5424   -1.6951   18.7145 H   0  0  0  0  0  0  0  0  0  0  0  0
   14.7141   -3.9650   17.7347 H   0  0  0  0  0  0  0  0  0  0  0  0
   16.4827   -2.3792   15.5332 H   0  0  0  0  0  0  0  0  0  0  0  0
   15.8345   -1.0255   13.6206 H   0  0  0  0  0  0  0  0  0  0  0  0
   11.9011   -0.4944   15.2967 H   0  0  0  0  0  0  0  0  0  0  0  0
   12.5844   -1.8188   17.2517 H   0  0  0  0  0  0  0  0  0  0  0  0
  1  2  2  0
  2  3  2  0
  2  4  1  0
  4  5  1  0
  5  6  2  0
  6  7  1  0
  7  8  1  0
  8  9  2  0
  2 10  1  0
 10 11  1  0
 11 12  1  0
 11 13  1  0
 13 14  2  0
 14 15  1  0
 15 16  2  0
 16 17  1  0
 17 18  1  0
 17 19  1  0
 17 20  1  0
 16 21  1  0
 21 22  2  0
  9  5  1  0
 22 13  1  0
  4 23  1  0
  4 24  1  0
  6 25  1  0
  8 26  1  0
 10 27  1  0
 10 28  1  0
 11 29  1  0
 12 30  1  0
 14 31  1  0
 15 32  1  0
 21 33  1  0
 22 34  1  0
M  END
>  <Energy>  (1254) 
77.230262873842705

>  <compound_id>  (1254) 
6684

>  <target_id>  (1254) 
1

>  <reference_id>  (1254) 
111

>  <inspiration_ids>  (1254) 
[111, 71]

>  <energy_score>  (1254) 
-30.370701272698

>  <distance_score>  (1254) 
1.670794186307497

>  <path>  (1254) 
/opt/xchem-fragalysis-2/maxwin/BulkDock/SCRATCH/511018/C6684-P111/C6684-P111.minimised.mol

>  <scratch_subdir>  (1254) 
/opt/xchem-fragalysis-2/maxwin/BulkDock/SCRATCH/511018/C6684-P111

>  <fragmenstein_runtime>  (1254) 
46.0847008228302

>  <fragmenstein_outcome>  (1254) 
too moved

>  <fragmenstein_mode>  (1254) 
expansion

>  <fragmenstein_error>  (1254) 


$$$$
C6684-P71
     RDKit          3D

 34 35  0  0  0  0  0  0  0  0999 V2000
   18.2981   -0.0664   19.4591 O   0  0  0  0  0  0  0  0  0  0  0  0
   17.2206   -1.0334   19.6122 S   0  0  0  0  0  0  0  0  0  0  0  0
   17.5202   -2.3080   20.2425 O   0  0  0  0  0  0  0  0  0  0  0  0
   15.9347   -0.2638   20.5740 C   0  0  0  0  0  0  0  0  0  0  0  0
   15.4689    1.0235   19.9995 C   0  0  0  0  0  0  0  0  0  0  0  0
   15.5401    2.2625   20.6066 C   0  0  0  0  0  0  0  0  0  0  0  0
   14.9387    3.4739   19.5523 S   0  0  0  0  0  0  0  0  0  0  0  0
   14.6053    2.2643   18.3854 C   0  0  0  0  0  0  0  0  0  0  0  0
   14.8813    1.0299   18.7435 N   0  0  0  0  0  0  0  0  0  0  0  0
   16.5530   -1.3402   17.9970 C   0  0  0  0  0  0  0  0  0  0  0  0
   15.2322   -2.1200   17.9791 C   0  0  0  0  0  0  0  0  0  0  0  0
   15.4505   -3.4933   18.2364 O   0  0  0  0  0  0  0  0  0  0  0  0
   14.5870   -2.0148   16.6160 C   0  0  0  0  0  0  0  0  0  0  0  0
   15.3893   -2.0832   15.4813 C   0  0  0  0  0  0  0  0  0  0  0  0
   15.0360   -1.3188   14.3920 C   0  0  0  0  0  0  0  0  0  0  0  0
   13.8556   -0.5783   14.4400 C   0  0  0  0  0  0  0  0  0  0  0  0
   13.7472    0.6663   13.6203 C   0  0  0  0  0  0  0  0  0  0  0  0
   12.9343    1.5923   14.2022 F   0  0  0  0  0  0  0  0  0  0  0  0
   13.2918    0.4456   12.3703 F   0  0  0  0  0  0  0  0  0  0  0  0
   14.9463    1.3015   13.4654 F   0  0  0  0  0  0  0  0  0  0  0  0
   12.8777   -0.8847   15.3857 C   0  0  0  0  0  0  0  0  0  0  0  0
   13.2532   -1.6248   16.4898 C   0  0  0  0  0  0  0  0  0  0  0  0
   15.1082   -0.9704   20.6821 H   0  0  0  0  0  0  0  0  0  0  0  0
   16.3586   -0.1083   21.5728 H   0  0  0  0  0  0  0  0  0  0  0  0
   15.9341    2.5175   21.5806 H   0  0  0  0  0  0  0  0  0  0  0  0
   14.1678    2.5105   17.4261 H   0  0  0  0  0  0  0  0  0  0  0  0
   16.4726   -0.3684   17.5004 H   0  0  0  0  0  0  0  0  0  0  0  0
   17.3445   -1.9049   17.4878 H   0  0  0  0  0  0  0  0  0  0  0  0
   14.5381   -1.7502   18.7366 H   0  0  0  0  0  0  0  0  0  0  0  0
   14.7915   -4.0131   17.7404 H   0  0  0  0  0  0  0  0  0  0  0  0
   16.3804   -2.5314   15.5092 H   0  0  0  0  0  0  0  0  0  0  0  0
   15.7569   -1.1673   13.5899 H   0  0  0  0  0  0  0  0  0  0  0  0
   11.9061   -0.3961   15.3632 H   0  0  0  0  0  0  0  0  0  0  0  0
   12.5694   -1.7216   17.3183 H   0  0  0  0  0  0  0  0  0  0  0  0
  1  2  2  0
  2  3  2  0
  2  4  1  0
  4  5  1  0
  5  6  2  0
  6  7  1  0
  7  8  1  0
  8  9  2  0
  2 10  1  0
 10 11  1  0
 11 12  1  0
 11 13  1  0
 13 14  2  0
 14 15  1  0
 15 16  2  0
 16 17  1  0
 17 18  1  0
 17 19  1  0
 17 20  1  0
 16 21  1  0
 21 22  2  0
  9  5  1  0
 22 13  1  0
  4 23  1  0
  4 24  1  0
  6 25  1  0
  8 26  1  0
 10 27  1  0
 10 28  1  0
 11 29  1  0
 12 30  1  0
 14 31  1  0
 15 32  1  0
 21 33  1  0
 22 34  1  0
M  END
>  <Energy>  (1255) 
77.206887901083221

>  <compound_id>  (1255) 
6684

>  <target_id>  (1255) 
1

>  <reference_id>  (1255) 
71

>  <inspiration_ids>  (1255) 
[111, 71]

>  <energy_score>  (1255) 
-30.394076245455835

>  <distance_score>  (1255) 
1.6720280247877446

>  <path>  (1255) 
/opt/xchem-fragalysis-2/maxwin/BulkDock/SCRATCH/511018/C6684-P71/C6684-P71.minimised.mol

>  <scratch_subdir>  (1255) 
/opt/xchem-fragalysis-2/maxwin/BulkDock/SCRATCH/511018/C6684-P71

>  <fragmenstein_runtime>  (1255) 
45.50832676887512

>  <fragmenstein_outcome>  (1255) 
too moved

>  <fragmenstein_mode>  (1255) 
expansion

>  <fragmenstein_error>  (1255) 


$$$$
C6689-P111
     RDKit          3D

 36 37  0  0  0  0  0  0  0  0999 V2000
   13.8812    1.2098   12.7434 C   0  0  0  0  0  0  0  0  0  0  0  0
   14.9794    2.2619   13.6646 S   0  0  0  0  0  0  0  0  0  0  0  0
   14.5517    3.6236   13.4135 O   0  0  0  0  0  0  0  0  0  0  0  0
   16.3319    1.8462   13.3436 O   0  0  0  0  0  0  0  0  0  0  0  0
   14.6369    1.9009   15.3920 C   0  0  0  0  0  0  0  0  0  0  0  0
   15.2032    3.0208   16.3190 C   0  0  0  0  0  0  0  0  0  0  0  0
   15.1305    2.8032   17.7724 O   0  0  0  0  0  0  0  0  0  0  0  0
   15.7390    1.6502   18.1730 C   0  0  0  0  0  0  0  0  0  0  0  0
   16.8495    1.1388   17.5253 C   0  0  0  0  0  0  0  0  0  0  0  0
   16.9417   -0.2344   17.4113 C   0  0  0  0  0  0  0  0  0  0  0  0
   15.9649   -1.0389   17.9968 C   0  0  0  0  0  0  0  0  0  0  0  0
   15.8242   -2.3516   17.5576 N   0  0  0  0  0  0  0  0  0  0  0  0
   14.4863   -2.9462   17.5920 C   0  0  0  0  0  0  0  0  0  0  0  0
   13.4233   -2.5501   16.5880 C   0  0  0  0  0  0  0  0  0  0  0  0
   12.4221   -3.4090   16.1673 C   0  0  0  0  0  0  0  0  0  0  0  0
   11.3975   -2.6394   15.0425 S   0  0  0  0  0  0  0  0  0  0  0  0
   12.3019   -1.2055   15.2286 C   0  0  0  0  0  0  0  0  0  0  0  0
   13.3347   -1.2666   16.0428 N   0  0  0  0  0  0  0  0  0  0  0  0
   15.1843   -0.4931   19.0112 C   0  0  0  0  0  0  0  0  0  0  0  0
   15.0410    0.8800   19.0846 C   0  0  0  0  0  0  0  0  0  0  0  0
   14.1165    0.1698   12.9754 H   0  0  0  0  0  0  0  0  0  0  0  0
   12.8520    1.4477   13.0175 H   0  0  0  0  0  0  0  0  0  0  0  0
   14.0376    1.3997   11.6794 H   0  0  0  0  0  0  0  0  0  0  0  0
   15.0425    0.9107   15.5950 H   0  0  0  0  0  0  0  0  0  0  0  0
   13.5506    1.8548   15.5166 H   0  0  0  0  0  0  0  0  0  0  0  0
   16.2312    3.2895   16.0463 H   0  0  0  0  0  0  0  0  0  0  0  0
   14.6163    3.9307   16.1439 H   0  0  0  0  0  0  0  0  0  0  0  0
   17.5148    1.7600   16.9355 H   0  0  0  0  0  0  0  0  0  0  0  0
   17.6854   -0.6610   16.7438 H   0  0  0  0  0  0  0  0  0  0  0  0
   16.2330   -2.4649   16.6328 H   0  0  0  0  0  0  0  0  0  0  0  0
   14.6590   -4.0204   17.4402 H   0  0  0  0  0  0  0  0  0  0  0  0
   14.0530   -2.8943   18.5976 H   0  0  0  0  0  0  0  0  0  0  0  0
   12.2542   -4.4356   16.4633 H   0  0  0  0  0  0  0  0  0  0  0  0
   12.0240   -0.3063   14.6974 H   0  0  0  0  0  0  0  0  0  0  0  0
   14.5543   -1.1087   19.6433 H   0  0  0  0  0  0  0  0  0  0  0  0
   14.2634    1.3168   19.7026 H   0  0  0  0  0  0  0  0  0  0  0  0
  1  2  1  0
  2  3  2  0
  2  4  2  0
  2  5  1  0
  5  6  1  0
  6  7  1  0
  7  8  1  0
  8  9  2  0
  9 10  1  0
 10 11  2  0
 11 12  1  0
 12 13  1  0
 13 14  1  0
 14 15  2  0
 15 16  1  0
 16 17  1  0
 17 18  2  0
 11 19  1  0
 19 20  2  0
 20  8  1  0
 18 14  1  0
  1 21  1  0
  1 22  1  0
  1 23  1  0
  5 24  1  0
  5 25  1  0
  6 26  1  0
  6 27  1  0
  9 28  1  0
 10 29  1  0
 12 30  1  0
 13 31  1  0
 13 32  1  0
 15 33  1  0
 17 34  1  0
 19 35  1  0
 20 36  1  0
M  END
>  <Energy>  (1256) 
45.717127371555016

>  <compound_id>  (1256) 
6689

>  <target_id>  (1256) 
1

>  <reference_id>  (1256) 
111

>  <inspiration_ids>  (1256) 
[111, 71]

>  <energy_score>  (1256) 
-50.18004656960349

>  <distance_score>  (1256) 
1.631932612343729

>  <path>  (1256) 
/opt/xchem-fragalysis-2/maxwin/BulkDock/SCRATCH/511018/C6689-P111/C6689-P111.minimised.mol

>  <scratch_subdir>  (1256) 
/opt/xchem-fragalysis-2/maxwin/BulkDock/SCRATCH/511018/C6689-P111

>  <fragmenstein_runtime>  (1256) 
2.6202189922332764

>  <fragmenstein_outcome>  (1256) 
too moved

>  <fragmenstein_mode>  (1256) 
expansion

>  <fragmenstein_error>  (1256) 


$$$$
C6689-P71
     RDKit          3D

 36 37  0  0  0  0  0  0  0  0999 V2000
   13.8523    1.2220   12.7663 C   0  0  0  0  0  0  0  0  0  0  0  0
   14.9845    2.2520   13.6713 S   0  0  0  0  0  0  0  0  0  0  0  0
   14.5917    3.6226   13.4118 O   0  0  0  0  0  0  0  0  0  0  0  0
   16.3234    1.7994   13.3418 O   0  0  0  0  0  0  0  0  0  0  0  0
   14.6459    1.9088   15.4033 C   0  0  0  0  0  0  0  0  0  0  0  0
   15.2455    3.0189   16.3199 C   0  0  0  0  0  0  0  0  0  0  0  0
   15.1858    2.8077   17.7742 O   0  0  0  0  0  0  0  0  0  0  0  0
   15.7633    1.6383   18.1699 C   0  0  0  0  0  0  0  0  0  0  0  0
   16.8635    1.1026   17.5244 C   0  0  0  0  0  0  0  0  0  0  0  0
   16.9385   -0.2732   17.4280 C   0  0  0  0  0  0  0  0  0  0  0  0
   15.9532   -1.0596   18.0247 C   0  0  0  0  0  0  0  0  0  0  0  0
   15.8071   -2.3813   17.6125 N   0  0  0  0  0  0  0  0  0  0  0  0
   14.4624   -2.9624   17.6454 C   0  0  0  0  0  0  0  0  0  0  0  0
   13.4175   -2.5694   16.6227 C   0  0  0  0  0  0  0  0  0  0  0  0
   12.4491   -3.4390   16.1515 C   0  0  0  0  0  0  0  0  0  0  0  0
   11.4274   -2.6560   15.0346 S   0  0  0  0  0  0  0  0  0  0  0  0
   12.2905   -1.2067   15.2854 C   0  0  0  0  0  0  0  0  0  0  0  0
   13.3106   -1.2724   16.1146 N   0  0  0  0  0  0  0  0  0  0  0  0
   15.1705   -0.4897   19.0247 C   0  0  0  0  0  0  0  0  0  0  0  0
   15.0472    0.8861   19.0823 C   0  0  0  0  0  0  0  0  0  0  0  0
   14.0658    0.1777   13.0005 H   0  0  0  0  0  0  0  0  0  0  0  0
   12.8319    1.4844   13.0508 H   0  0  0  0  0  0  0  0  0  0  0  0
   14.0015    1.4037   11.6999 H   0  0  0  0  0  0  0  0  0  0  0  0
   15.0293    0.9101   15.6090 H   0  0  0  0  0  0  0  0  0  0  0  0
   13.5597    1.8888   15.5358 H   0  0  0  0  0  0  0  0  0  0  0  0
   16.2763    3.2632   16.0352 H   0  0  0  0  0  0  0  0  0  0  0  0
   14.6771    3.9411   16.1477 H   0  0  0  0  0  0  0  0  0  0  0  0
   17.5374    1.7088   16.9286 H   0  0  0  0  0  0  0  0  0  0  0  0
   17.6784   -0.7172   16.7679 H   0  0  0  0  0  0  0  0  0  0  0  0
   16.2209   -2.5146   16.6926 H   0  0  0  0  0  0  0  0  0  0  0  0
   14.6233   -4.0425   17.5180 H   0  0  0  0  0  0  0  0  0  0  0  0
   14.0182   -2.8844   18.6446 H   0  0  0  0  0  0  0  0  0  0  0  0
   12.2983   -4.4777   16.4108 H   0  0  0  0  0  0  0  0  0  0  0  0
   12.0001   -0.2951   14.7822 H   0  0  0  0  0  0  0  0  0  0  0  0
   14.5247   -1.0882   19.6571 H   0  0  0  0  0  0  0  0  0  0  0  0
   14.2708    1.3423   19.6873 H   0  0  0  0  0  0  0  0  0  0  0  0
  1  2  1  0
  2  3  2  0
  2  4  2  0
  2  5  1  0
  5  6  1  0
  6  7  1  0
  7  8  1  0
  8  9  2  0
  9 10  1  0
 10 11  2  0
 11 12  1  0
 12 13  1  0
 13 14  1  0
 14 15  2  0
 15 16  1  0
 16 17  1  0
 17 18  2  0
 11 19  1  0
 19 20  2  0
 20  8  1  0
 18 14  1  0
  1 21  1  0
  1 22  1  0
  1 23  1  0
  5 24  1  0
  5 25  1  0
  6 26  1  0
  6 27  1  0
  9 28  1  0
 10 29  1  0
 12 30  1  0
 13 31  1  0
 13 32  1  0
 15 33  1  0
 17 34  1  0
 19 35  1  0
 20 36  1  0
M  END
>  <Energy>  (1257) 
44.511407132503869

>  <compound_id>  (1257) 
6689

>  <target_id>  (1257) 
1

>  <reference_id>  (1257) 
71

>  <inspiration_ids>  (1257) 
[111, 71]

>  <energy_score>  (1257) 
-51.38576680865421

>  <distance_score>  (1257) 
1.6476436233463965

>  <path>  (1257) 
/opt/xchem-fragalysis-2/maxwin/BulkDock/SCRATCH/511018/C6689-P71/C6689-P71.minimised.mol

>  <scratch_subdir>  (1257) 
/opt/xchem-fragalysis-2/maxwin/BulkDock/SCRATCH/511018/C6689-P71

>  <fragmenstein_runtime>  (1257) 
2.9046263694763184

>  <fragmenstein_outcome>  (1257) 
too moved

>  <fragmenstein_mode>  (1257) 
expansion

>  <fragmenstein_error>  (1257) 


$$$$
C6693-P111
     RDKit          3D

 35 36  0  0  0  0  0  0  0  0999 V2000
   14.1795    0.9704   12.4661 C   0  0  0  0  0  0  0  0  0  0  0  0
   15.5467    1.6444   13.3867 S   0  0  0  0  0  0  0  0  0  0  0  0
   16.7040    1.6153   12.5114 O   0  0  0  0  0  0  0  0  0  0  0  0
   15.0913    2.8964   13.9597 O   0  0  0  0  0  0  0  0  0  0  0  0
   15.8205    0.4655   14.7048 C   0  0  0  0  0  0  0  0  0  0  0  0
   16.7062    1.0445   15.8225 C   0  0  0  0  0  0  0  0  0  0  0  0
   17.0117    0.0917   16.8951 O   0  0  0  0  0  0  0  0  0  0  0  0
   16.4852    0.4920   18.0921 C   0  0  0  0  0  0  0  0  0  0  0  0
   17.3252    0.9151   19.1138 C   0  0  0  0  0  0  0  0  0  0  0  0
   16.7749    1.4354   20.2777 C   0  0  0  0  0  0  0  0  0  0  0  0
   15.3996    1.5142   20.3633 C   0  0  0  0  0  0  0  0  0  0  0  0
   14.5661    1.0705   19.4020 N   0  0  0  0  0  0  0  0  0  0  0  0
   15.1146    0.5269   18.3061 C   0  0  0  0  0  0  0  0  0  0  0  0
   14.2038    0.0543   17.3866 N   0  0  0  0  0  0  0  0  0  0  0  0
   14.2155   -1.3907   17.1701 C   0  0  0  0  0  0  0  0  0  0  0  0
   13.0807   -1.8080   16.2746 C   0  0  0  0  0  0  0  0  0  0  0  0
   12.6083   -3.0855   16.0629 C   0  0  0  0  0  0  0  0  0  0  0  0
   11.3108   -3.0375   14.9507 S   0  0  0  0  0  0  0  0  0  0  0  0
   11.4380   -1.3417   14.8554 C   0  0  0  0  0  0  0  0  0  0  0  0
   12.3852   -0.8090   15.5876 N   0  0  0  0  0  0  0  0  0  0  0  0
   13.3058    0.9220   13.1182 H   0  0  0  0  0  0  0  0  0  0  0  0
   13.9790    1.6298   11.6193 H   0  0  0  0  0  0  0  0  0  0  0  0
   14.4527   -0.0248   12.1105 H   0  0  0  0  0  0  0  0  0  0  0  0
   16.2662   -0.4372   14.2773 H   0  0  0  0  0  0  0  0  0  0  0  0
   14.8314    0.2109   15.0697 H   0  0  0  0  0  0  0  0  0  0  0  0
   17.6760    1.3234   15.3929 H   0  0  0  0  0  0  0  0  0  0  0  0
   16.2751    1.9742   16.2181 H   0  0  0  0  0  0  0  0  0  0  0  0
   18.4023    0.8745   18.9847 H   0  0  0  0  0  0  0  0  0  0  0  0
   17.4032    1.7935   21.0851 H   0  0  0  0  0  0  0  0  0  0  0  0
   14.9127    1.9338   21.2397 H   0  0  0  0  0  0  0  0  0  0  0  0
   13.2930    0.3312   17.7390 H   0  0  0  0  0  0  0  0  0  0  0  0
   15.1516   -1.7106   16.6987 H   0  0  0  0  0  0  0  0  0  0  0  0
   14.1281   -1.9208   18.1266 H   0  0  0  0  0  0  0  0  0  0  0  0
   12.9527   -4.0179   16.4882 H   0  0  0  0  0  0  0  0  0  0  0  0
   10.7800   -0.7434   14.2379 H   0  0  0  0  0  0  0  0  0  0  0  0
  1  2  1  0
  2  3  2  0
  2  4  2  0
  2  5  1  0
  5  6  1  0
  6  7  1  0
  7  8  1  0
  8  9  2  0
  9 10  1  0
 10 11  2  0
 11 12  1  0
 12 13  2  0
 13 14  1  0
 14 15  1  0
 15 16  1  0
 16 17  2  0
 17 18  1  0
 18 19  1  0
 19 20  2  0
 13  8  1  0
 20 16  1  0
  1 21  1  0
  1 22  1  0
  1 23  1  0
  5 24  1  0
  5 25  1  0
  6 26  1  0
  6 27  1  0
  9 28  1  0
 10 29  1  0
 11 30  1  0
 14 31  1  0
 15 32  1  0
 15 33  1  0
 17 34  1  0
 19 35  1  0
M  END
>  <Energy>  (1258) 
13.688241863396801

>  <compound_id>  (1258) 
6693

>  <target_id>  (1258) 
1

>  <reference_id>  (1258) 
111

>  <inspiration_ids>  (1258) 
[111, 71]

>  <energy_score>  (1258) 
-70.49718973885403

>  <distance_score>  (1258) 
1.4595149667240697

>  <path>  (1258) 
/opt/xchem-fragalysis-2/maxwin/BulkDock/SCRATCH/511018/C6693-P111/C6693-P111.minimised.mol

>  <scratch_subdir>  (1258) 
/opt/xchem-fragalysis-2/maxwin/BulkDock/SCRATCH/511018/C6693-P111

>  <fragmenstein_runtime>  (1258) 
1.7731881141662598

>  <fragmenstein_outcome>  (1258) 
too moved

>  <fragmenstein_mode>  (1258) 
expansion

>  <fragmenstein_error>  (1258) 


$$$$
C6693-P71
     RDKit          3D

 35 36  0  0  0  0  0  0  0  0999 V2000
   14.1250    1.0033   12.4928 C   0  0  0  0  0  0  0  0  0  0  0  0
   15.5303    1.6329   13.3871 S   0  0  0  0  0  0  0  0  0  0  0  0
   16.6807    1.5144   12.5100 O   0  0  0  0  0  0  0  0  0  0  0  0
   15.1463    2.9249   13.9217 O   0  0  0  0  0  0  0  0  0  0  0  0
   15.7446    0.4842   14.7414 C   0  0  0  0  0  0  0  0  0  0  0  0
   16.6856    1.0382   15.8251 C   0  0  0  0  0  0  0  0  0  0  0  0
   16.9922    0.0800   16.8911 O   0  0  0  0  0  0  0  0  0  0  0  0
   16.5024    0.4917   18.0991 C   0  0  0  0  0  0  0  0  0  0  0  0
   17.3756    0.9252   19.0880 C   0  0  0  0  0  0  0  0  0  0  0  0
   16.8645    1.4532   20.2655 C   0  0  0  0  0  0  0  0  0  0  0  0
   15.4932    1.5247   20.3983 C   0  0  0  0  0  0  0  0  0  0  0  0
   14.6286    1.0669   19.4724 N   0  0  0  0  0  0  0  0  0  0  0  0
   15.1390    0.5241   18.3571 C   0  0  0  0  0  0  0  0  0  0  0  0
   14.2008    0.0494   17.4663 N   0  0  0  0  0  0  0  0  0  0  0  0
   14.2136   -1.3931   17.2399 C   0  0  0  0  0  0  0  0  0  0  0  0
   13.0936   -1.8131   16.3282 C   0  0  0  0  0  0  0  0  0  0  0  0
   12.6503   -3.0961   16.0873 C   0  0  0  0  0  0  0  0  0  0  0  0
   11.3604   -3.0537   14.9673 S   0  0  0  0  0  0  0  0  0  0  0  0
   11.4537   -1.3538   14.9046 C   0  0  0  0  0  0  0  0  0  0  0  0
   12.3876   -0.8168   15.6502 N   0  0  0  0  0  0  0  0  0  0  0  0
   13.2537    1.0192   13.1499 H   0  0  0  0  0  0  0  0  0  0  0  0
   13.9538    1.6468   11.6275 H   0  0  0  0  0  0  0  0  0  0  0  0
   14.3447   -0.0148   12.1660 H   0  0  0  0  0  0  0  0  0  0  0  0
   16.1166   -0.4627   14.3401 H   0  0  0  0  0  0  0  0  0  0  0  0
   14.7463    0.3195   15.1339 H   0  0  0  0  0  0  0  0  0  0  0  0
   17.6505    1.2810   15.3640 H   0  0  0  0  0  0  0  0  0  0  0  0
   16.2980    1.9836   16.2288 H   0  0  0  0  0  0  0  0  0  0  0  0
   18.4476    0.8875   18.9214 H   0  0  0  0  0  0  0  0  0  0  0  0
   17.5194    1.8227   21.0460 H   0  0  0  0  0  0  0  0  0  0  0  0
   15.0361    1.9514   21.2865 H   0  0  0  0  0  0  0  0  0  0  0  0
   13.2976    0.3286   17.8386 H   0  0  0  0  0  0  0  0  0  0  0  0
   15.1554   -1.7128   16.7799 H   0  0  0  0  0  0  0  0  0  0  0  0
   14.1129   -1.9257   18.1939 H   0  0  0  0  0  0  0  0  0  0  0  0
   13.0111   -4.0284   16.4978 H   0  0  0  0  0  0  0  0  0  0  0  0
   10.7873   -0.7565   14.2954 H   0  0  0  0  0  0  0  0  0  0  0  0
  1  2  1  0
  2  3  2  0
  2  4  2  0
  2  5  1  0
  5  6  1  0
  6  7  1  0
  7  8  1  0
  8  9  2  0
  9 10  1  0
 10 11  2  0
 11 12  1  0
 12 13  2  0
 13 14  1  0
 14 15  1  0
 15 16  1  0
 16 17  2  0
 17 18  1  0
 18 19  1  0
 19 20  2  0
 13  8  1  0
 20 16  1  0
  1 21  1  0
  1 22  1  0
  1 23  1  0
  5 24  1  0
  5 25  1  0
  6 26  1  0
  6 27  1  0
  9 28  1  0
 10 29  1  0
 11 30  1  0
 14 31  1  0
 15 32  1  0
 15 33  1  0
 17 34  1  0
 19 35  1  0
M  END
>  <Energy>  (1259) 
13.058977252643047

>  <compound_id>  (1259) 
6693

>  <target_id>  (1259) 
1

>  <reference_id>  (1259) 
71

>  <inspiration_ids>  (1259) 
[111, 71]

>  <energy_score>  (1259) 
-71.12645434960787

>  <distance_score>  (1259) 
1.4766342127945964

>  <path>  (1259) 
/opt/xchem-fragalysis-2/maxwin/BulkDock/SCRATCH/511018/C6693-P71/C6693-P71.minimised.mol

>  <scratch_subdir>  (1259) 
/opt/xchem-fragalysis-2/maxwin/BulkDock/SCRATCH/511018/C6693-P71

>  <fragmenstein_runtime>  (1259) 
1.4483411312103271

>  <fragmenstein_outcome>  (1259) 
too moved

>  <fragmenstein_mode>  (1259) 
expansion

>  <fragmenstein_error>  (1259) 


$$$$
C6694-P111
     RDKit          3D

 35 36  0  0  0  0  0  0  0  0999 V2000
   14.3073    1.0015   12.3870 C   0  0  0  0  0  0  0  0  0  0  0  0
   15.5351    1.8412   13.3663 S   0  0  0  0  0  0  0  0  0  0  0  0
   16.7140    1.9954   12.5359 O   0  0  0  0  0  0  0  0  0  0  0  0
   14.8881    3.0002   13.9526 O   0  0  0  0  0  0  0  0  0  0  0  0
   15.9213    0.6950   14.6767 C   0  0  0  0  0  0  0  0  0  0  0  0
   16.7169    1.3560   15.8169 C   0  0  0  0  0  0  0  0  0  0  0  0
   17.1721    0.4175   16.8435 O   0  0  0  0  0  0  0  0  0  0  0  0
   16.6093    0.6483   18.0588 C   0  0  0  0  0  0  0  0  0  0  0  0
   17.3496    1.2280   19.0799 C   0  0  0  0  0  0  0  0  0  0  0  0
   16.7249    1.5671   20.2769 C   0  0  0  0  0  0  0  0  0  0  0  0
   15.3709    1.3181   20.4001 C   0  0  0  0  0  0  0  0  0  0  0  0
   14.6339    0.7287   19.4390 N   0  0  0  0  0  0  0  0  0  0  0  0
   15.2881    0.3654   18.3275 C   0  0  0  0  0  0  0  0  0  0  0  0
   14.4047   -0.2014   17.4147 N   0  0  0  0  0  0  0  0  0  0  0  0
   14.6660   -1.7992   16.9733 S   0  0  0  0  0  0  0  0  0  0  0  0
   14.5273   -2.6829   18.1045 O   0  0  0  0  0  0  0  0  0  0  0  0
   15.7317   -1.9337   16.0086 O   0  0  0  0  0  0  0  0  0  0  0  0
   13.2313   -2.0772   16.0202 C   0  0  0  0  0  0  0  0  0  0  0  0
   12.5439   -3.2649   15.9661 C   0  0  0  0  0  0  0  0  0  0  0  0
   11.1846   -3.0613   14.9546 S   0  0  0  0  0  0  0  0  0  0  0  0
   11.5721   -1.4177   14.7185 C   0  0  0  0  0  0  0  0  0  0  0  0
   12.6495   -0.9992   15.3364 N   0  0  0  0  0  0  0  0  0  0  0  0
   13.4277    0.8183   13.0063 H   0  0  0  0  0  0  0  0  0  0  0  0
   14.0444    1.6440   11.5442 H   0  0  0  0  0  0  0  0  0  0  0  0
   14.7293    0.0620   12.0256 H   0  0  0  0  0  0  0  0  0  0  0  0
   14.9584    0.3409   15.0351 H   0  0  0  0  0  0  0  0  0  0  0  0
   16.4730   -0.1424   14.2415 H   0  0  0  0  0  0  0  0  0  0  0  0
   16.1435    2.1834   16.2564 H   0  0  0  0  0  0  0  0  0  0  0  0
   17.6274    1.8039   15.4014 H   0  0  0  0  0  0  0  0  0  0  0  0
   18.4040    1.4433   18.9314 H   0  0  0  0  0  0  0  0  0  0  0  0
   17.2789    2.0329   21.0847 H   0  0  0  0  0  0  0  0  0  0  0  0
   14.8303    1.5813   21.3061 H   0  0  0  0  0  0  0  0  0  0  0  0
   13.4687   -0.0932   17.7930 H   0  0  0  0  0  0  0  0  0  0  0  0
   12.7733   -4.2049   16.4507 H   0  0  0  0  0  0  0  0  0  0  0  0
   10.9622   -0.7644   14.1065 H   0  0  0  0  0  0  0  0  0  0  0  0
  1  2  1  0
  2  3  2  0
  2  4  2  0
  2  5  1  0
  5  6  1  0
  6  7  1  0
  7  8  1  0
  8  9  2  0
  9 10  1  0
 10 11  2  0
 11 12  1  0
 12 13  2  0
 13 14  1  0
 14 15  1  0
 15 16  2  0
 15 17  2  0
 15 18  1  0
 18 19  2  0
 19 20  1  0
 20 21  1  0
 21 22  2  0
 13  8  1  0
 22 18  1  0
  1 23  1  0
  1 24  1  0
  1 25  1  0
  5 26  1  0
  5 27  1  0
  6 28  1  0
  6 29  1  0
  9 30  1  0
 10 31  1  0
 11 32  1  0
 14 33  1  0
 19 34  1  0
 21 35  1  0
M  END
>  <Energy>  (1260) 
-1.3782112603677228

>  <compound_id>  (1260) 
6694

>  <target_id>  (1260) 
1

>  <reference_id>  (1260) 
111

>  <inspiration_ids>  (1260) 
[111, 71]

>  <energy_score>  (1260) 
-146.16244161289808

>  <distance_score>  (1260) 
1.4774658120438657

>  <path>  (1260) 
/opt/xchem-fragalysis-2/maxwin/BulkDock/SCRATCH/511018/C6694-P111/C6694-P111.minimised.mol

>  <scratch_subdir>  (1260) 
/opt/xchem-fragalysis-2/maxwin/BulkDock/SCRATCH/511018/C6694-P111

>  <fragmenstein_runtime>  (1260) 
2.5721285343170166

>  <fragmenstein_outcome>  (1260) 
too moved

>  <fragmenstein_mode>  (1260) 
expansion

>  <fragmenstein_error>  (1260) 


$$$$
C6694-P71
     RDKit          3D

 35 36  0  0  0  0  0  0  0  0999 V2000
   14.2403    1.0284   12.4304 C   0  0  0  0  0  0  0  0  0  0  0  0
   15.5232    1.8384   13.3626 S   0  0  0  0  0  0  0  0  0  0  0  0
   16.6909    1.9138   12.5053 O   0  0  0  0  0  0  0  0  0  0  0  0
   14.9415    3.0420   13.9252 O   0  0  0  0  0  0  0  0  0  0  0  0
   15.8823    0.7111   14.6970 C   0  0  0  0  0  0  0  0  0  0  0  0
   16.6992    1.3734   15.8201 C   0  0  0  0  0  0  0  0  0  0  0  0
   17.1681    0.4343   16.8385 O   0  0  0  0  0  0  0  0  0  0  0  0
   16.6272    0.6645   18.0635 C   0  0  0  0  0  0  0  0  0  0  0  0
   17.3867    1.2491   19.0674 C   0  0  0  0  0  0  0  0  0  0  0  0
   16.7891    1.5786   20.2800 C   0  0  0  0  0  0  0  0  0  0  0  0
   15.4426    1.3114   20.4369 C   0  0  0  0  0  0  0  0  0  0  0  0
   14.6876    0.7151   19.4947 N   0  0  0  0  0  0  0  0  0  0  0  0
   15.3145    0.3695   18.3616 C   0  0  0  0  0  0  0  0  0  0  0  0
   14.4163   -0.1998   17.4643 N   0  0  0  0  0  0  0  0  0  0  0  0
   14.6795   -1.7931   17.0126 S   0  0  0  0  0  0  0  0  0  0  0  0
   14.5463   -2.6835   18.1393 O   0  0  0  0  0  0  0  0  0  0  0  0
   15.7450   -1.9201   16.0462 O   0  0  0  0  0  0  0  0  0  0  0  0
   13.2486   -2.0772   16.0581 C   0  0  0  0  0  0  0  0  0  0  0  0
   12.5948   -3.2814   15.9657 C   0  0  0  0  0  0  0  0  0  0  0  0
   11.2292   -3.0824   14.9633 S   0  0  0  0  0  0  0  0  0  0  0  0
   11.5722   -1.4223   14.7781 C   0  0  0  0  0  0  0  0  0  0  0  0
   12.6438   -0.9966   15.4005 N   0  0  0  0  0  0  0  0  0  0  0  0
   13.3655    0.9030   13.0705 H   0  0  0  0  0  0  0  0  0  0  0  0
   13.9905    1.6581   11.5741 H   0  0  0  0  0  0  0  0  0  0  0  0
   14.6124    0.0607   12.0890 H   0  0  0  0  0  0  0  0  0  0  0  0
   14.9130    0.3891   15.0697 H   0  0  0  0  0  0  0  0  0  0  0  0
   16.4095   -0.1488   14.2756 H   0  0  0  0  0  0  0  0  0  0  0  0
   16.1353    2.2031   16.2677 H   0  0  0  0  0  0  0  0  0  0  0  0
   17.6043    1.8171   15.3886 H   0  0  0  0  0  0  0  0  0  0  0  0
   18.4349    1.4748   18.8932 H   0  0  0  0  0  0  0  0  0  0  0  0
   17.3583    2.0495   21.0739 H   0  0  0  0  0  0  0  0  0  0  0  0
   14.9235    1.5654   21.3573 H   0  0  0  0  0  0  0  0  0  0  0  0
   13.4832   -0.0894   17.8513 H   0  0  0  0  0  0  0  0  0  0  0  0
   12.8500   -4.2290   16.4207 H   0  0  0  0  0  0  0  0  0  0  0  0
   10.9422   -0.7652   14.1909 H   0  0  0  0  0  0  0  0  0  0  0  0
  1  2  1  0
  2  3  2  0
  2  4  2  0
  2  5  1  0
  5  6  1  0
  6  7  1  0
  7  8  1  0
  8  9  2  0
  9 10  1  0
 10 11  2  0
 11 12  1  0
 12 13  2  0
 13 14  1  0
 14 15  1  0
 15 16  2  0
 15 17  2  0
 15 18  1  0
 18 19  2  0
 19 20  1  0
 20 21  1  0
 21 22  2  0
 13  8  1  0
 22 18  1  0
  1 23  1  0
  1 24  1  0
  1 25  1  0
  5 26  1  0
  5 27  1  0
  6 28  1  0
  6 29  1  0
  9 30  1  0
 10 31  1  0
 11 32  1  0
 14 33  1  0
 19 34  1  0
 21 35  1  0
M  END
>  <Energy>  (1261) 
-1.7473069311997536

>  <compound_id>  (1261) 
6694

>  <target_id>  (1261) 
1

>  <reference_id>  (1261) 
71

>  <inspiration_ids>  (1261) 
[111, 71]

>  <energy_score>  (1261) 
-146.53153728372916

>  <distance_score>  (1261) 
1.4868692230165128

>  <path>  (1261) 
/opt/xchem-fragalysis-2/maxwin/BulkDock/SCRATCH/511018/C6694-P71/C6694-P71.minimised.mol

>  <scratch_subdir>  (1261) 
/opt/xchem-fragalysis-2/maxwin/BulkDock/SCRATCH/511018/C6694-P71

>  <fragmenstein_runtime>  (1261) 
2.317333221435547

>  <fragmenstein_outcome>  (1261) 
too moved

>  <fragmenstein_mode>  (1261) 
expansion

>  <fragmenstein_error>  (1261) 


$$$$
C6691-P111
     RDKit          3D

 43 44  0  0  0  0  0  0  0  0999 V2000
   14.5625   -0.7485   17.7486 C   0  0  0  0  0  0  0  0  0  0  0  0
   15.5323   -1.7700   17.1651 N   0  0  0  0  0  0  0  0  0  0  0  0
   14.4119   -2.7035   17.4837 C   0  0  0  0  0  0  0  0  0  0  0  0
   13.3788   -2.7284   16.3585 C   0  0  0  0  0  0  0  0  0  0  0  0
   12.2713   -3.5473   16.3022 C   0  0  0  0  0  0  0  0  0  0  0  0
   11.2596   -3.0755   15.0060 S   0  0  0  0  0  0  0  0  0  0  0  0
   12.4058   -1.9168   14.5236 C   0  0  0  0  0  0  0  0  0  0  0  0
   13.4603   -1.8079   15.2983 N   0  0  0  0  0  0  0  0  0  0  0  0
   16.8353   -1.6182   17.7769 C   0  0  0  0  0  0  0  0  0  0  0  0
   17.2954   -2.1323   18.7299 O   0  0  0  0  0  0  0  0  0  0  0  0
   17.3592   -0.5790   16.9225 N   0  0  0  0  0  0  0  0  0  0  0  0
   18.5143    0.1871   17.0231 C   0  0  0  0  0  0  0  0  0  0  0  0
   18.4078    1.1190   18.0632 C   0  0  0  0  0  0  0  0  0  0  0  0
   18.2780    2.4643   17.7171 C   0  0  0  0  0  0  0  0  0  0  0  0
   18.3998    2.8385   16.3758 C   0  0  0  0  0  0  0  0  0  0  0  0
   17.8159    4.0280   16.0233 O   0  0  0  0  0  0  0  0  0  0  0  0
   17.0717    3.9849   14.7851 C   0  0  0  0  0  0  0  0  0  0  0  0
   15.9127    2.9833   14.8018 C   0  0  0  0  0  0  0  0  0  0  0  0
   15.2772    2.7409   13.1599 S   0  0  0  0  0  0  0  0  0  0  0  0
   14.0475    1.4774   13.3729 C   0  0  0  0  0  0  0  0  0  0  0  0
   16.3372    2.1814   12.3433 O   0  0  0  0  0  0  0  0  0  0  0  0
   14.5941    3.9569   12.7663 O   0  0  0  0  0  0  0  0  0  0  0  0
   18.9314    1.9500   15.4443 C   0  0  0  0  0  0  0  0  0  0  0  0
   18.9885    0.6035   15.7763 C   0  0  0  0  0  0  0  0  0  0  0  0
   14.5401   -0.7926   18.8500 H   0  0  0  0  0  0  0  0  0  0  0  0
   13.5645   -0.6169   17.3168 H   0  0  0  0  0  0  0  0  0  0  0  0
   15.0271    0.2309   17.5580 H   0  0  0  0  0  0  0  0  0  0  0  0
   14.0043   -2.7084   18.5075 H   0  0  0  0  0  0  0  0  0  0  0  0
   14.9023   -3.6886   17.4331 H   0  0  0  0  0  0  0  0  0  0  0  0
   11.9900   -4.3473   16.9709 H   0  0  0  0  0  0  0  0  0  0  0  0
   12.2536   -1.3062   13.6438 H   0  0  0  0  0  0  0  0  0  0  0  0
   16.7281   -0.4407   16.1446 H   0  0  0  0  0  0  0  0  0  0  0  0
   18.1071    0.7997   19.0593 H   0  0  0  0  0  0  0  0  0  0  0  0
   17.9405    3.1836   18.4580 H   0  0  0  0  0  0  0  0  0  0  0  0
   16.6599    4.9914   14.6430 H   0  0  0  0  0  0  0  0  0  0  0  0
   17.7563    3.8358   13.9426 H   0  0  0  0  0  0  0  0  0  0  0  0
   16.2023    1.9982   15.1736 H   0  0  0  0  0  0  0  0  0  0  0  0
   15.1004    3.3503   15.4368 H   0  0  0  0  0  0  0  0  0  0  0  0
   14.5329    0.5778   13.7556 H   0  0  0  0  0  0  0  0  0  0  0  0
   13.5941    1.2731   12.4007 H   0  0  0  0  0  0  0  0  0  0  0  0
   13.2898    1.8360   14.0719 H   0  0  0  0  0  0  0  0  0  0  0  0
   19.1456    2.2468   14.4226 H   0  0  0  0  0  0  0  0  0  0  0  0
   19.1628   -0.1276   14.9890 H   0  0  0  0  0  0  0  0  0  0  0  0
  1  2  1  0
  2  3  1  0
  3  4  1  0
  4  5  2  0
  5  6  1  0
  6  7  1  0
  7  8  2  0
  2  9  1  0
  9 10  2  0
  9 11  1  0
 11 12  1  0
 12 13  2  0
 13 14  1  0
 14 15  2  0
 15 16  1  0
 16 17  1  0
 17 18  1  0
 18 19  1  0
 19 20  1  0
 19 21  2  0
 19 22  2  0
 15 23  1  0
 23 24  2  0
  8  4  1  0
 24 12  1  0
  1 25  1  0
  1 26  1  0
  1 27  1  0
  3 28  1  0
  3 29  1  0
  5 30  1  0
  7 31  1  0
 11 32  1  0
 13 33  1  0
 14 34  1  0
 17 35  1  0
 17 36  1  0
 18 37  1  0
 18 38  1  0
 20 39  1  0
 20 40  1  0
 20 41  1  0
 23 42  1  0
 24 43  1  0
M  END
>  <Energy>  (1262) 
82.137501101717774

>  <compound_id>  (1262) 
6691

>  <target_id>  (1262) 
1

>  <reference_id>  (1262) 
111

>  <inspiration_ids>  (1262) 
[111, 71]

>  <energy_score>  (1262) 
51.53340833100199

>  <distance_score>  (1262) 
2.3309706856603216

>  <path>  (1262) 
/opt/xchem-fragalysis-2/maxwin/BulkDock/SCRATCH/511018/C6691-P111/C6691-P111.minimised.mol

>  <scratch_subdir>  (1262) 
/opt/xchem-fragalysis-2/maxwin/BulkDock/SCRATCH/511018/C6691-P111

>  <fragmenstein_runtime>  (1262) 
6.228119850158691

>  <fragmenstein_outcome>  (1262) 
too moved

>  <fragmenstein_mode>  (1262) 
expansion

>  <fragmenstein_error>  (1262) 


$$$$
C6691-P71
     RDKit          3D

 43 44  0  0  0  0  0  0  0  0999 V2000
   14.5212    0.2093   16.2913 C   0  0  0  0  0  0  0  0  0  0  0  0
   15.2699   -0.9328   16.9627 N   0  0  0  0  0  0  0  0  0  0  0  0
   13.9105   -1.2156   17.5242 C   0  0  0  0  0  0  0  0  0  0  0  0
   12.8541   -1.7373   16.5841 C   0  0  0  0  0  0  0  0  0  0  0  0
   12.7731   -2.9987   16.0334 C   0  0  0  0  0  0  0  0  0  0  0  0
   11.4819   -3.0521   14.9158 S   0  0  0  0  0  0  0  0  0  0  0  0
   11.0936   -1.4306   15.2693 C   0  0  0  0  0  0  0  0  0  0  0  0
   11.8456   -0.8564   16.1811 N   0  0  0  0  0  0  0  0  0  0  0  0
   16.4657   -0.4291   17.6035 C   0  0  0  0  0  0  0  0  0  0  0  0
   16.6344   -0.0376   18.6985 O   0  0  0  0  0  0  0  0  0  0  0  0
   17.3645   -0.4601   16.4625 N   0  0  0  0  0  0  0  0  0  0  0  0
   18.6480    0.0479   16.3019 C   0  0  0  0  0  0  0  0  0  0  0  0
   18.9350    1.1850   17.0615 C   0  0  0  0  0  0  0  0  0  0  0  0
   19.2742    2.3406   16.3701 C   0  0  0  0  0  0  0  0  0  0  0  0
   19.4230    2.2778   14.9835 C   0  0  0  0  0  0  0  0  0  0  0  0
   19.2412    3.4537   14.3054 O   0  0  0  0  0  0  0  0  0  0  0  0
   18.2743    3.3627   13.2333 C   0  0  0  0  0  0  0  0  0  0  0  0
   16.8890    2.8849   13.6821 C   0  0  0  0  0  0  0  0  0  0  0  0
   15.7964    2.7537   12.2871 S   0  0  0  0  0  0  0  0  0  0  0  0
   14.3241    2.0298   12.9640 C   0  0  0  0  0  0  0  0  0  0  0  0
   16.3622    1.7886   11.3637 O   0  0  0  0  0  0  0  0  0  0  0  0
   15.4615    4.0957   11.8564 O   0  0  0  0  0  0  0  0  0  0  0  0
   19.5502    1.0511   14.3331 C   0  0  0  0  0  0  0  0  0  0  0  0
   19.1572   -0.0950   15.0095 C   0  0  0  0  0  0  0  0  0  0  0  0
   13.9763    0.9182   16.9351 H   0  0  0  0  0  0  0  0  0  0  0  0
   14.0070   -0.0995   15.3746 H   0  0  0  0  0  0  0  0  0  0  0  0
   15.3007    0.8699   15.8793 H   0  0  0  0  0  0  0  0  0  0  0  0
   13.5721   -0.4374   18.2240 H   0  0  0  0  0  0  0  0  0  0  0  0
   14.1189   -2.0480   18.2154 H   0  0  0  0  0  0  0  0  0  0  0  0
   13.4159   -3.8510   16.2018 H   0  0  0  0  0  0  0  0  0  0  0  0
   10.2748   -0.9191   14.7774 H   0  0  0  0  0  0  0  0  0  0  0  0
   16.9129   -0.9439   15.6985 H   0  0  0  0  0  0  0  0  0  0  0  0
   18.6153    1.2755   18.0966 H   0  0  0  0  0  0  0  0  0  0  0  0
   19.2586    3.3006   16.8786 H   0  0  0  0  0  0  0  0  0  0  0  0
   18.1837    4.3762   12.8246 H   0  0  0  0  0  0  0  0  0  0  0  0
   18.6807    2.7544   12.4168 H   0  0  0  0  0  0  0  0  0  0  0  0
   16.9185    1.8966   14.1456 H   0  0  0  0  0  0  0  0  0  0  0  0
   16.4524    3.5831   14.4025 H   0  0  0  0  0  0  0  0  0  0  0  0
   14.5610    1.0255   13.3171 H   0  0  0  0  0  0  0  0  0  0  0  0
   13.5742    1.9771   12.1718 H   0  0  0  0  0  0  0  0  0  0  0  0
   13.9633    2.6574   13.7806 H   0  0  0  0  0  0  0  0  0  0  0  0
   19.7776    0.9943   13.2731 H   0  0  0  0  0  0  0  0  0  0  0  0
   19.0128   -1.0150   14.4488 H   0  0  0  0  0  0  0  0  0  0  0  0
  1  2  1  0
  2  3  1  0
  3  4  1  0
  4  5  2  0
  5  6  1  0
  6  7  1  0
  7  8  2  0
  2  9  1  0
  9 10  2  0
  9 11  1  0
 11 12  1  0
 12 13  2  0
 13 14  1  0
 14 15  2  0
 15 16  1  0
 16 17  1  0
 17 18  1  0
 18 19  1  0
 19 20  1  0
 19 21  2  0
 19 22  2  0
 15 23  1  0
 23 24  2  0
  8  4  1  0
 24 12  1  0
  1 25  1  0
  1 26  1  0
  1 27  1  0
  3 28  1  0
  3 29  1  0
  5 30  1  0
  7 31  1  0
 11 32  1  0
 13 33  1  0
 14 34  1  0
 17 35  1  0
 17 36  1  0
 18 37  1  0
 18 38  1  0
 20 39  1  0
 20 40  1  0
 20 41  1  0
 23 42  1  0
 24 43  1  0
M  END
>  <Energy>  (1263) 
67.328235998462318

>  <compound_id>  (1263) 
6691

>  <target_id>  (1263) 
1

>  <reference_id>  (1263) 
71

>  <inspiration_ids>  (1263) 
[111, 71]

>  <energy_score>  (1263) 
36.72414322774759

>  <distance_score>  (1263) 
2.8327394285577565

>  <path>  (1263) 
/opt/xchem-fragalysis-2/maxwin/BulkDock/SCRATCH/511018/C6691-P71/C6691-P71.minimised.mol

>  <scratch_subdir>  (1263) 
/opt/xchem-fragalysis-2/maxwin/BulkDock/SCRATCH/511018/C6691-P71

>  <fragmenstein_runtime>  (1263) 
6.066046953201294

>  <fragmenstein_outcome>  (1263) 
too moved

>  <fragmenstein_mode>  (1263) 
expansion

>  <fragmenstein_error>  (1263) 


$$$$
C6693-P111
     RDKit          3D

 35 36  0  0  0  0  0  0  0  0999 V2000
   14.1795    0.9704   12.4661 C   0  0  0  0  0  0  0  0  0  0  0  0
   15.5467    1.6444   13.3867 S   0  0  0  0  0  0  0  0  0  0  0  0
   16.7040    1.6153   12.5114 O   0  0  0  0  0  0  0  0  0  0  0  0
   15.0913    2.8964   13.9597 O   0  0  0  0  0  0  0  0  0  0  0  0
   15.8205    0.4655   14.7048 C   0  0  0  0  0  0  0  0  0  0  0  0
   16.7062    1.0445   15.8225 C   0  0  0  0  0  0  0  0  0  0  0  0
   17.0117    0.0917   16.8951 O   0  0  0  0  0  0  0  0  0  0  0  0
   16.4852    0.4920   18.0921 C   0  0  0  0  0  0  0  0  0  0  0  0
   17.3252    0.9151   19.1138 C   0  0  0  0  0  0  0  0  0  0  0  0
   16.7749    1.4354   20.2777 C   0  0  0  0  0  0  0  0  0  0  0  0
   15.3996    1.5142   20.3633 C   0  0  0  0  0  0  0  0  0  0  0  0
   14.5661    1.0705   19.4020 N   0  0  0  0  0  0  0  0  0  0  0  0
   15.1146    0.5269   18.3061 C   0  0  0  0  0  0  0  0  0  0  0  0
   14.2038    0.0543   17.3866 N   0  0  0  0  0  0  0  0  0  0  0  0
   14.2155   -1.3907   17.1701 C   0  0  0  0  0  0  0  0  0  0  0  0
   13.0807   -1.8080   16.2746 C   0  0  0  0  0  0  0  0  0  0  0  0
   12.6083   -3.0855   16.0629 C   0  0  0  0  0  0  0  0  0  0  0  0
   11.3108   -3.0375   14.9507 S   0  0  0  0  0  0  0  0  0  0  0  0
   11.4380   -1.3417   14.8554 C   0  0  0  0  0  0  0  0  0  0  0  0
   12.3852   -0.8090   15.5876 N   0  0  0  0  0  0  0  0  0  0  0  0
   13.3058    0.9220   13.1182 H   0  0  0  0  0  0  0  0  0  0  0  0
   13.9790    1.6298   11.6193 H   0  0  0  0  0  0  0  0  0  0  0  0
   14.4527   -0.0248   12.1105 H   0  0  0  0  0  0  0  0  0  0  0  0
   16.2662   -0.4372   14.2773 H   0  0  0  0  0  0  0  0  0  0  0  0
   14.8314    0.2109   15.0697 H   0  0  0  0  0  0  0  0  0  0  0  0
   17.6760    1.3234   15.3929 H   0  0  0  0  0  0  0  0  0  0  0  0
   16.2751    1.9742   16.2181 H   0  0  0  0  0  0  0  0  0  0  0  0
   18.4023    0.8745   18.9847 H   0  0  0  0  0  0  0  0  0  0  0  0
   17.4032    1.7935   21.0851 H   0  0  0  0  0  0  0  0  0  0  0  0
   14.9127    1.9338   21.2397 H   0  0  0  0  0  0  0  0  0  0  0  0
   13.2930    0.3312   17.7390 H   0  0  0  0  0  0  0  0  0  0  0  0
   15.1516   -1.7106   16.6987 H   0  0  0  0  0  0  0  0  0  0  0  0
   14.1281   -1.9208   18.1266 H   0  0  0  0  0  0  0  0  0  0  0  0
   12.9527   -4.0179   16.4882 H   0  0  0  0  0  0  0  0  0  0  0  0
   10.7800   -0.7434   14.2379 H   0  0  0  0  0  0  0  0  0  0  0  0
  1  2  1  0
  2  3  2  0
  2  4  2  0
  2  5  1  0
  5  6  1  0
  6  7  1  0
  7  8  1  0
  8  9  2  0
  9 10  1  0
 10 11  2  0
 11 12  1  0
 12 13  2  0
 13 14  1  0
 14 15  1  0
 15 16  1  0
 16 17  2  0
 17 18  1  0
 18 19  1  0
 19 20  2  0
 13  8  1  0
 20 16  1  0
  1 21  1  0
  1 22  1  0
  1 23  1  0
  5 24  1  0
  5 25  1  0
  6 26  1  0
  6 27  1  0
  9 28  1  0
 10 29  1  0
 11 30  1  0
 14 31  1  0
 15 32  1  0
 15 33  1  0
 17 34  1  0
 19 35  1  0
M  END
>  <Energy>  (1264) 
13.688241863396801

>  <compound_id>  (1264) 
6693

>  <target_id>  (1264) 
1

>  <reference_id>  (1264) 
111

>  <inspiration_ids>  (1264) 
[111, 71]

>  <energy_score>  (1264) 
-70.49718973885403

>  <distance_score>  (1264) 
1.4595149667240697

>  <path>  (1264) 
/opt/xchem-fragalysis-2/maxwin/BulkDock/SCRATCH/511018/C6693-P111/C6693-P111.minimised.mol

>  <scratch_subdir>  (1264) 
/opt/xchem-fragalysis-2/maxwin/BulkDock/SCRATCH/511018/C6693-P111

>  <fragmenstein_runtime>  (1264) 
1.6595394611358643

>  <fragmenstein_outcome>  (1264) 
too moved

>  <fragmenstein_mode>  (1264) 
expansion

>  <fragmenstein_error>  (1264) 


$$$$
C6693-P71
     RDKit          3D

 35 36  0  0  0  0  0  0  0  0999 V2000
   14.1250    1.0033   12.4928 C   0  0  0  0  0  0  0  0  0  0  0  0
   15.5303    1.6329   13.3871 S   0  0  0  0  0  0  0  0  0  0  0  0
   16.6807    1.5144   12.5100 O   0  0  0  0  0  0  0  0  0  0  0  0
   15.1463    2.9249   13.9217 O   0  0  0  0  0  0  0  0  0  0  0  0
   15.7446    0.4842   14.7414 C   0  0  0  0  0  0  0  0  0  0  0  0
   16.6856    1.0382   15.8251 C   0  0  0  0  0  0  0  0  0  0  0  0
   16.9922    0.0800   16.8911 O   0  0  0  0  0  0  0  0  0  0  0  0
   16.5024    0.4917   18.0991 C   0  0  0  0  0  0  0  0  0  0  0  0
   17.3756    0.9252   19.0880 C   0  0  0  0  0  0  0  0  0  0  0  0
   16.8645    1.4532   20.2655 C   0  0  0  0  0  0  0  0  0  0  0  0
   15.4932    1.5247   20.3983 C   0  0  0  0  0  0  0  0  0  0  0  0
   14.6286    1.0669   19.4724 N   0  0  0  0  0  0  0  0  0  0  0  0
   15.1390    0.5241   18.3571 C   0  0  0  0  0  0  0  0  0  0  0  0
   14.2008    0.0494   17.4663 N   0  0  0  0  0  0  0  0  0  0  0  0
   14.2136   -1.3931   17.2399 C   0  0  0  0  0  0  0  0  0  0  0  0
   13.0936   -1.8131   16.3282 C   0  0  0  0  0  0  0  0  0  0  0  0
   12.6503   -3.0961   16.0873 C   0  0  0  0  0  0  0  0  0  0  0  0
   11.3604   -3.0537   14.9673 S   0  0  0  0  0  0  0  0  0  0  0  0
   11.4537   -1.3538   14.9046 C   0  0  0  0  0  0  0  0  0  0  0  0
   12.3876   -0.8168   15.6502 N   0  0  0  0  0  0  0  0  0  0  0  0
   13.2537    1.0192   13.1499 H   0  0  0  0  0  0  0  0  0  0  0  0
   13.9538    1.6468   11.6275 H   0  0  0  0  0  0  0  0  0  0  0  0
   14.3447   -0.0148   12.1660 H   0  0  0  0  0  0  0  0  0  0  0  0
   16.1166   -0.4627   14.3401 H   0  0  0  0  0  0  0  0  0  0  0  0
   14.7463    0.3195   15.1339 H   0  0  0  0  0  0  0  0  0  0  0  0
   17.6505    1.2810   15.3640 H   0  0  0  0  0  0  0  0  0  0  0  0
   16.2980    1.9836   16.2288 H   0  0  0  0  0  0  0  0  0  0  0  0
   18.4476    0.8875   18.9214 H   0  0  0  0  0  0  0  0  0  0  0  0
   17.5194    1.8227   21.0460 H   0  0  0  0  0  0  0  0  0  0  0  0
   15.0361    1.9514   21.2865 H   0  0  0  0  0  0  0  0  0  0  0  0
   13.2976    0.3286   17.8386 H   0  0  0  0  0  0  0  0  0  0  0  0
   15.1554   -1.7128   16.7799 H   0  0  0  0  0  0  0  0  0  0  0  0
   14.1129   -1.9257   18.1939 H   0  0  0  0  0  0  0  0  0  0  0  0
   13.0111   -4.0284   16.4978 H   0  0  0  0  0  0  0  0  0  0  0  0
   10.7873   -0.7565   14.2954 H   0  0  0  0  0  0  0  0  0  0  0  0
  1  2  1  0
  2  3  2  0
  2  4  2  0
  2  5  1  0
  5  6  1  0
  6  7  1  0
  7  8  1  0
  8  9  2  0
  9 10  1  0
 10 11  2  0
 11 12  1  0
 12 13  2  0
 13 14  1  0
 14 15  1  0
 15 16  1  0
 16 17  2  0
 17 18  1  0
 18 19  1  0
 19 20  2  0
 13  8  1  0
 20 16  1  0
  1 21  1  0
  1 22  1  0
  1 23  1  0
  5 24  1  0
  5 25  1  0
  6 26  1  0
  6 27  1  0
  9 28  1  0
 10 29  1  0
 11 30  1  0
 14 31  1  0
 15 32  1  0
 15 33  1  0
 17 34  1  0
 19 35  1  0
M  END
>  <Energy>  (1265) 
13.058977252643047

>  <compound_id>  (1265) 
6693

>  <target_id>  (1265) 
1

>  <reference_id>  (1265) 
71

>  <inspiration_ids>  (1265) 
[111, 71]

>  <energy_score>  (1265) 
-71.12645434960787

>  <distance_score>  (1265) 
1.4766342127945964

>  <path>  (1265) 
/opt/xchem-fragalysis-2/maxwin/BulkDock/SCRATCH/511018/C6693-P71/C6693-P71.minimised.mol

>  <scratch_subdir>  (1265) 
/opt/xchem-fragalysis-2/maxwin/BulkDock/SCRATCH/511018/C6693-P71

>  <fragmenstein_runtime>  (1265) 
1.4200663566589355

>  <fragmenstein_outcome>  (1265) 
too moved

>  <fragmenstein_mode>  (1265) 
expansion

>  <fragmenstein_error>  (1265) 


$$$$
C6694-P111
     RDKit          3D

 35 36  0  0  0  0  0  0  0  0999 V2000
   14.3073    1.0015   12.3870 C   0  0  0  0  0  0  0  0  0  0  0  0
   15.5351    1.8412   13.3663 S   0  0  0  0  0  0  0  0  0  0  0  0
   16.7140    1.9954   12.5359 O   0  0  0  0  0  0  0  0  0  0  0  0
   14.8881    3.0002   13.9526 O   0  0  0  0  0  0  0  0  0  0  0  0
   15.9213    0.6950   14.6767 C   0  0  0  0  0  0  0  0  0  0  0  0
   16.7169    1.3560   15.8169 C   0  0  0  0  0  0  0  0  0  0  0  0
   17.1721    0.4175   16.8435 O   0  0  0  0  0  0  0  0  0  0  0  0
   16.6093    0.6483   18.0588 C   0  0  0  0  0  0  0  0  0  0  0  0
   17.3496    1.2280   19.0799 C   0  0  0  0  0  0  0  0  0  0  0  0
   16.7249    1.5671   20.2769 C   0  0  0  0  0  0  0  0  0  0  0  0
   15.3709    1.3181   20.4001 C   0  0  0  0  0  0  0  0  0  0  0  0
   14.6339    0.7287   19.4390 N   0  0  0  0  0  0  0  0  0  0  0  0
   15.2881    0.3654   18.3275 C   0  0  0  0  0  0  0  0  0  0  0  0
   14.4047   -0.2014   17.4147 N   0  0  0  0  0  0  0  0  0  0  0  0
   14.6660   -1.7992   16.9733 S   0  0  0  0  0  0  0  0  0  0  0  0
   14.5273   -2.6829   18.1045 O   0  0  0  0  0  0  0  0  0  0  0  0
   15.7317   -1.9337   16.0086 O   0  0  0  0  0  0  0  0  0  0  0  0
   13.2313   -2.0772   16.0202 C   0  0  0  0  0  0  0  0  0  0  0  0
   12.5439   -3.2649   15.9661 C   0  0  0  0  0  0  0  0  0  0  0  0
   11.1846   -3.0613   14.9546 S   0  0  0  0  0  0  0  0  0  0  0  0
   11.5721   -1.4177   14.7185 C   0  0  0  0  0  0  0  0  0  0  0  0
   12.6495   -0.9992   15.3364 N   0  0  0  0  0  0  0  0  0  0  0  0
   13.4277    0.8183   13.0063 H   0  0  0  0  0  0  0  0  0  0  0  0
   14.0444    1.6440   11.5442 H   0  0  0  0  0  0  0  0  0  0  0  0
   14.7293    0.0620   12.0256 H   0  0  0  0  0  0  0  0  0  0  0  0
   14.9584    0.3409   15.0351 H   0  0  0  0  0  0  0  0  0  0  0  0
   16.4730   -0.1424   14.2415 H   0  0  0  0  0  0  0  0  0  0  0  0
   16.1435    2.1834   16.2564 H   0  0  0  0  0  0  0  0  0  0  0  0
   17.6274    1.8039   15.4014 H   0  0  0  0  0  0  0  0  0  0  0  0
   18.4040    1.4433   18.9314 H   0  0  0  0  0  0  0  0  0  0  0  0
   17.2789    2.0329   21.0847 H   0  0  0  0  0  0  0  0  0  0  0  0
   14.8303    1.5813   21.3061 H   0  0  0  0  0  0  0  0  0  0  0  0
   13.4687   -0.0932   17.7930 H   0  0  0  0  0  0  0  0  0  0  0  0
   12.7733   -4.2049   16.4507 H   0  0  0  0  0  0  0  0  0  0  0  0
   10.9622   -0.7644   14.1065 H   0  0  0  0  0  0  0  0  0  0  0  0
  1  2  1  0
  2  3  2  0
  2  4  2  0
  2  5  1  0
  5  6  1  0
  6  7  1  0
  7  8  1  0
  8  9  2  0
  9 10  1  0
 10 11  2  0
 11 12  1  0
 12 13  2  0
 13 14  1  0
 14 15  1  0
 15 16  2  0
 15 17  2  0
 15 18  1  0
 18 19  2  0
 19 20  1  0
 20 21  1  0
 21 22  2  0
 13  8  1  0
 22 18  1  0
  1 23  1  0
  1 24  1  0
  1 25  1  0
  5 26  1  0
  5 27  1  0
  6 28  1  0
  6 29  1  0
  9 30  1  0
 10 31  1  0
 11 32  1  0
 14 33  1  0
 19 34  1  0
 21 35  1  0
M  END
>  <Energy>  (1266) 
-1.3782112603677228

>  <compound_id>  (1266) 
6694

>  <target_id>  (1266) 
1

>  <reference_id>  (1266) 
111

>  <inspiration_ids>  (1266) 
[111, 71]

>  <energy_score>  (1266) 
-146.16244161289808

>  <distance_score>  (1266) 
1.4774658120438657

>  <path>  (1266) 
/opt/xchem-fragalysis-2/maxwin/BulkDock/SCRATCH/511018/C6694-P111/C6694-P111.minimised.mol

>  <scratch_subdir>  (1266) 
/opt/xchem-fragalysis-2/maxwin/BulkDock/SCRATCH/511018/C6694-P111

>  <fragmenstein_runtime>  (1266) 
2.177541494369507

>  <fragmenstein_outcome>  (1266) 
too moved

>  <fragmenstein_mode>  (1266) 
expansion

>  <fragmenstein_error>  (1266) 


$$$$
C6694-P71
     RDKit          3D

 35 36  0  0  0  0  0  0  0  0999 V2000
   14.2403    1.0284   12.4304 C   0  0  0  0  0  0  0  0  0  0  0  0
   15.5232    1.8384   13.3626 S   0  0  0  0  0  0  0  0  0  0  0  0
   16.6909    1.9138   12.5053 O   0  0  0  0  0  0  0  0  0  0  0  0
   14.9415    3.0420   13.9252 O   0  0  0  0  0  0  0  0  0  0  0  0
   15.8823    0.7111   14.6970 C   0  0  0  0  0  0  0  0  0  0  0  0
   16.6992    1.3734   15.8201 C   0  0  0  0  0  0  0  0  0  0  0  0
   17.1681    0.4343   16.8385 O   0  0  0  0  0  0  0  0  0  0  0  0
   16.6272    0.6645   18.0635 C   0  0  0  0  0  0  0  0  0  0  0  0
   17.3867    1.2491   19.0674 C   0  0  0  0  0  0  0  0  0  0  0  0
   16.7891    1.5786   20.2800 C   0  0  0  0  0  0  0  0  0  0  0  0
   15.4426    1.3114   20.4369 C   0  0  0  0  0  0  0  0  0  0  0  0
   14.6876    0.7151   19.4947 N   0  0  0  0  0  0  0  0  0  0  0  0
   15.3145    0.3695   18.3616 C   0  0  0  0  0  0  0  0  0  0  0  0
   14.4163   -0.1998   17.4643 N   0  0  0  0  0  0  0  0  0  0  0  0
   14.6795   -1.7931   17.0126 S   0  0  0  0  0  0  0  0  0  0  0  0
   14.5463   -2.6835   18.1393 O   0  0  0  0  0  0  0  0  0  0  0  0
   15.7450   -1.9201   16.0462 O   0  0  0  0  0  0  0  0  0  0  0  0
   13.2486   -2.0772   16.0581 C   0  0  0  0  0  0  0  0  0  0  0  0
   12.5948   -3.2814   15.9657 C   0  0  0  0  0  0  0  0  0  0  0  0
   11.2292   -3.0824   14.9633 S   0  0  0  0  0  0  0  0  0  0  0  0
   11.5722   -1.4223   14.7781 C   0  0  0  0  0  0  0  0  0  0  0  0
   12.6438   -0.9966   15.4005 N   0  0  0  0  0  0  0  0  0  0  0  0
   13.3655    0.9030   13.0705 H   0  0  0  0  0  0  0  0  0  0  0  0
   13.9905    1.6581   11.5741 H   0  0  0  0  0  0  0  0  0  0  0  0
   14.6124    0.0607   12.0890 H   0  0  0  0  0  0  0  0  0  0  0  0
   14.9130    0.3891   15.0697 H   0  0  0  0  0  0  0  0  0  0  0  0
   16.4095   -0.1488   14.2756 H   0  0  0  0  0  0  0  0  0  0  0  0
   16.1353    2.2031   16.2677 H   0  0  0  0  0  0  0  0  0  0  0  0
   17.6043    1.8171   15.3886 H   0  0  0  0  0  0  0  0  0  0  0  0
   18.4349    1.4748   18.8932 H   0  0  0  0  0  0  0  0  0  0  0  0
   17.3583    2.0495   21.0739 H   0  0  0  0  0  0  0  0  0  0  0  0
   14.9235    1.5654   21.3573 H   0  0  0  0  0  0  0  0  0  0  0  0
   13.4832   -0.0894   17.8513 H   0  0  0  0  0  0  0  0  0  0  0  0
   12.8500   -4.2290   16.4207 H   0  0  0  0  0  0  0  0  0  0  0  0
   10.9422   -0.7652   14.1909 H   0  0  0  0  0  0  0  0  0  0  0  0
  1  2  1  0
  2  3  2  0
  2  4  2  0
  2  5  1  0
  5  6  1  0
  6  7  1  0
  7  8  1  0
  8  9  2  0
  9 10  1  0
 10 11  2  0
 11 12  1  0
 12 13  2  0
 13 14  1  0
 14 15  1  0
 15 16  2  0
 15 17  2  0
 15 18  1  0
 18 19  2  0
 19 20  1  0
 20 21  1  0
 21 22  2  0
 13  8  1  0
 22 18  1  0
  1 23  1  0
  1 24  1  0
  1 25  1  0
  5 26  1  0
  5 27  1  0
  6 28  1  0
  6 29  1  0
  9 30  1  0
 10 31  1  0
 11 32  1  0
 14 33  1  0
 19 34  1  0
 21 35  1  0
M  END
>  <Energy>  (1267) 
-1.7473069311997536

>  <compound_id>  (1267) 
6694

>  <target_id>  (1267) 
1

>  <reference_id>  (1267) 
71

>  <inspiration_ids>  (1267) 
[111, 71]

>  <energy_score>  (1267) 
-146.53153728372916

>  <distance_score>  (1267) 
1.4868692230165128

>  <path>  (1267) 
/opt/xchem-fragalysis-2/maxwin/BulkDock/SCRATCH/511018/C6694-P71/C6694-P71.minimised.mol

>  <scratch_subdir>  (1267) 
/opt/xchem-fragalysis-2/maxwin/BulkDock/SCRATCH/511018/C6694-P71

>  <fragmenstein_runtime>  (1267) 
2.2849347591400146

>  <fragmenstein_outcome>  (1267) 
too moved

>  <fragmenstein_mode>  (1267) 
expansion

>  <fragmenstein_error>  (1267) 


$$$$
C6695-P111
     RDKit          3D

 40 41  0  0  0  0  0  0  0  0999 V2000
   14.0287    1.1152   12.7079 C   0  0  0  0  0  0  0  0  0  0  0  0
   15.1973    1.8998   13.7996 S   0  0  0  0  0  0  0  0  0  0  0  0
   14.7863    3.2850   13.9231 O   0  0  0  0  0  0  0  0  0  0  0  0
   16.5219    1.5650   13.3138 O   0  0  0  0  0  0  0  0  0  0  0  0
   14.9331    1.1104   15.3849 C   0  0  0  0  0  0  0  0  0  0  0  0
   15.6785    1.7982   16.5441 C   0  0  0  0  0  0  0  0  0  0  0  0
   15.1705    1.3358   17.8385 O   0  0  0  0  0  0  0  0  0  0  0  0
   16.1607    1.1981   18.7816 C   0  0  0  0  0  0  0  0  0  0  0  0
   16.9308    2.2661   19.2134 C   0  0  0  0  0  0  0  0  0  0  0  0
   17.9461    2.0423   20.1391 C   0  0  0  0  0  0  0  0  0  0  0  0
   18.1475    0.7487   20.5932 C   0  0  0  0  0  0  0  0  0  0  0  0
   17.4049   -0.3070   20.2007 N   0  0  0  0  0  0  0  0  0  0  0  0
   16.4102   -0.0611   19.3301 C   0  0  0  0  0  0  0  0  0  0  0  0
   15.5920   -1.0811   18.9003 N   0  0  0  0  0  0  0  0  0  0  0  0
   15.7029   -2.6136   19.1031 C   0  0  0  0  0  0  0  0  0  0  0  0
   16.4617   -3.2406   19.7299 O   0  0  0  0  0  0  0  0  0  0  0  0
   14.5806   -3.2220   18.2884 C   0  0  0  0  0  0  0  0  0  0  0  0
   14.7120   -2.8815   16.8039 C   0  0  0  0  0  0  0  0  0  0  0  0
   13.3969   -2.5705   16.1679 C   0  0  0  0  0  0  0  0  0  0  0  0
   12.3411   -3.4499   16.0463 C   0  0  0  0  0  0  0  0  0  0  0  0
   11.1206   -2.7600   15.0792 S   0  0  0  0  0  0  0  0  0  0  0  0
   12.0092   -1.3112   14.9962 C   0  0  0  0  0  0  0  0  0  0  0  0
   13.1731   -1.3169   15.6115 N   0  0  0  0  0  0  0  0  0  0  0  0
   14.1465    1.5485   11.7126 H   0  0  0  0  0  0  0  0  0  0  0  0
   14.2407    0.0448   12.6787 H   0  0  0  0  0  0  0  0  0  0  0  0
   13.0199    1.3014   13.0802 H   0  0  0  0  0  0  0  0  0  0  0  0
   13.8579    1.1466   15.5810 H   0  0  0  0  0  0  0  0  0  0  0  0
   15.2543    0.0705   15.2956 H   0  0  0  0  0  0  0  0  0  0  0  0
   15.5228    2.8821   16.5103 H   0  0  0  0  0  0  0  0  0  0  0  0
   16.7538    1.6022   16.4417 H   0  0  0  0  0  0  0  0  0  0  0  0
   16.7507    3.2685   18.8382 H   0  0  0  0  0  0  0  0  0  0  0  0
   18.5683    2.8555   20.4960 H   0  0  0  0  0  0  0  0  0  0  0  0
   18.9314    0.5192   21.3096 H   0  0  0  0  0  0  0  0  0  0  0  0
   14.7647   -0.8708   18.3585 H   0  0  0  0  0  0  0  0  0  0  0  0
   14.6145   -4.3080   18.4253 H   0  0  0  0  0  0  0  0  0  0  0  0
   13.6339   -2.8866   18.7208 H   0  0  0  0  0  0  0  0  0  0  0  0
   15.1466   -3.7470   16.2859 H   0  0  0  0  0  0  0  0  0  0  0  0
   15.4098   -2.0601   16.6092 H   0  0  0  0  0  0  0  0  0  0  0  0
   12.2595   -4.4610   16.4216 H   0  0  0  0  0  0  0  0  0  0  0  0
   11.6252   -0.4536   14.4591 H   0  0  0  0  0  0  0  0  0  0  0  0
  1  2  1  0
  2  3  2  0
  2  4  2  0
  2  5  1  0
  5  6  1  0
  6  7  1  0
  7  8  1  0
  8  9  2  0
  9 10  1  0
 10 11  2  0
 11 12  1  0
 12 13  2  0
 13 14  1  0
 14 15  1  0
 15 16  2  0
 15 17  1  0
 17 18  1  0
 18 19  1  0
 19 20  2  0
 20 21  1  0
 21 22  1  0
 22 23  2  0
 13  8  1  0
 23 19  1  0
  1 24  1  0
  1 25  1  0
  1 26  1  0
  5 27  1  0
  5 28  1  0
  6 29  1  0
  6 30  1  0
  9 31  1  0
 10 32  1  0
 11 33  1  0
 14 34  1  0
 17 35  1  0
 17 36  1  0
 18 37  1  0
 18 38  1  0
 20 39  1  0
 22 40  1  0
M  END
>  <Energy>  (1268) 
7.2832463985840477

>  <compound_id>  (1268) 
6695

>  <target_id>  (1268) 
1

>  <reference_id>  (1268) 
111

>  <inspiration_ids>  (1268) 
[111, 71]

>  <energy_score>  (1268) 
-86.7809866535321

>  <distance_score>  (1268) 
2.0541447308982757

>  <path>  (1268) 
/opt/xchem-fragalysis-2/maxwin/BulkDock/SCRATCH/511018/C6695-P111/C6695-P111.minimised.mol

>  <scratch_subdir>  (1268) 
/opt/xchem-fragalysis-2/maxwin/BulkDock/SCRATCH/511018/C6695-P111

>  <fragmenstein_runtime>  (1268) 
2.9581408500671387

>  <fragmenstein_outcome>  (1268) 
too moved

>  <fragmenstein_mode>  (1268) 
expansion

>  <fragmenstein_error>  (1268) 


$$$$
C6695-P71
     RDKit          3D

 40 41  0  0  0  0  0  0  0  0999 V2000
   14.0072    1.1407   12.7087 C   0  0  0  0  0  0  0  0  0  0  0  0
   15.2015    1.8858   13.8007 S   0  0  0  0  0  0  0  0  0  0  0  0
   14.8339    3.2823   13.9299 O   0  0  0  0  0  0  0  0  0  0  0  0
   16.5143    1.5135   13.3089 O   0  0  0  0  0  0  0  0  0  0  0  0
   14.9164    1.0934   15.3807 C   0  0  0  0  0  0  0  0  0  0  0  0
   15.6637    1.7614   16.5496 C   0  0  0  0  0  0  0  0  0  0  0  0
   15.1569    1.2749   17.8344 O   0  0  0  0  0  0  0  0  0  0  0  0
   16.1342    1.1456   18.7908 C   0  0  0  0  0  0  0  0  0  0  0  0
   16.9151    2.2111   19.2101 C   0  0  0  0  0  0  0  0  0  0  0  0
   17.9120    1.9940   20.1571 C   0  0  0  0  0  0  0  0  0  0  0  0
   18.0841    0.7092   20.6462 C   0  0  0  0  0  0  0  0  0  0  0  0
   17.3305   -0.3438   20.2677 N   0  0  0  0  0  0  0  0  0  0  0  0
   16.3557   -0.1049   19.3720 C   0  0  0  0  0  0  0  0  0  0  0  0
   15.5374   -1.1276   18.9461 N   0  0  0  0  0  0  0  0  0  0  0  0
   15.6252   -2.6564   19.1920 C   0  0  0  0  0  0  0  0  0  0  0  0
   16.3595   -3.2750   19.8559 O   0  0  0  0  0  0  0  0  0  0  0  0
   14.5225   -3.2779   18.3590 C   0  0  0  0  0  0  0  0  0  0  0  0
   14.6952   -2.9627   16.8727 C   0  0  0  0  0  0  0  0  0  0  0  0
   13.4000   -2.6233   16.2143 C   0  0  0  0  0  0  0  0  0  0  0  0
   12.3517   -3.4982   16.0223 C   0  0  0  0  0  0  0  0  0  0  0  0
   11.1477   -2.7583   15.0747 S   0  0  0  0  0  0  0  0  0  0  0  0
   12.0291   -1.3029   15.0940 C   0  0  0  0  0  0  0  0  0  0  0  0
   13.1830   -1.3416   15.7265 N   0  0  0  0  0  0  0  0  0  0  0  0
   14.1322    1.5778   11.7159 H   0  0  0  0  0  0  0  0  0  0  0  0
   14.1901    0.0653   12.6713 H   0  0  0  0  0  0  0  0  0  0  0  0
   13.0053    1.3508   13.0872 H   0  0  0  0  0  0  0  0  0  0  0  0
   13.8406    1.1444   15.5702 H   0  0  0  0  0  0  0  0  0  0  0  0
   15.2218    0.0488   15.2868 H   0  0  0  0  0  0  0  0  0  0  0  0
   15.5088    2.8458   16.5333 H   0  0  0  0  0  0  0  0  0  0  0  0
   16.7385    1.5643   16.4439 H   0  0  0  0  0  0  0  0  0  0  0  0
   16.7560    3.2076   18.8098 H   0  0  0  0  0  0  0  0  0  0  0  0
   18.5418    2.8058   20.5036 H   0  0  0  0  0  0  0  0  0  0  0  0
   18.8526    0.4847   21.3806 H   0  0  0  0  0  0  0  0  0  0  0  0
   14.7271   -0.9225   18.3758 H   0  0  0  0  0  0  0  0  0  0  0  0
   13.5659   -2.9297   18.7604 H   0  0  0  0  0  0  0  0  0  0  0  0
   14.5473   -4.3639   18.5119 H   0  0  0  0  0  0  0  0  0  0  0  0
   15.1121   -3.8487   16.3749 H   0  0  0  0  0  0  0  0  0  0  0  0
   15.4202   -2.1649   16.6780 H   0  0  0  0  0  0  0  0  0  0  0  0
   12.2652   -4.5273   16.3426 H   0  0  0  0  0  0  0  0  0  0  0  0
   11.6503   -0.4149   14.6049 H   0  0  0  0  0  0  0  0  0  0  0  0
  1  2  1  0
  2  3  2  0
  2  4  2  0
  2  5  1  0
  5  6  1  0
  6  7  1  0
  7  8  1  0
  8  9  2  0
  9 10  1  0
 10 11  2  0
 11 12  1  0
 12 13  2  0
 13 14  1  0
 14 15  1  0
 15 16  2  0
 15 17  1  0
 17 18  1  0
 18 19  1  0
 19 20  2  0
 20 21  1  0
 21 22  1  0
 22 23  2  0
 13  8  1  0
 23 19  1  0
  1 24  1  0
  1 25  1  0
  1 26  1  0
  5 27  1  0
  5 28  1  0
  6 29  1  0
  6 30  1  0
  9 31  1  0
 10 32  1  0
 11 33  1  0
 14 34  1  0
 17 35  1  0
 17 36  1  0
 18 37  1  0
 18 38  1  0
 20 39  1  0
 22 40  1  0
M  END
>  <Energy>  (1269) 
7.0537405376435718

>  <compound_id>  (1269) 
6695

>  <target_id>  (1269) 
1

>  <reference_id>  (1269) 
71

>  <inspiration_ids>  (1269) 
[111, 71]

>  <energy_score>  (1269) 
-87.01049251447229

>  <distance_score>  (1269) 
2.2154877388181493

>  <path>  (1269) 
/opt/xchem-fragalysis-2/maxwin/BulkDock/SCRATCH/511018/C6695-P71/C6695-P71.minimised.mol

>  <scratch_subdir>  (1269) 
/opt/xchem-fragalysis-2/maxwin/BulkDock/SCRATCH/511018/C6695-P71

>  <fragmenstein_runtime>  (1269) 
3.1346919536590576

>  <fragmenstein_outcome>  (1269) 
too moved

>  <fragmenstein_mode>  (1269) 
expansion

>  <fragmenstein_error>  (1269) 


$$$$
C6688-P111
     RDKit          3D

 39 40  0  0  0  0  0  0  0  0999 V2000
   15.1427    0.1090   13.0459 C   0  0  0  0  0  0  0  0  0  0  0  0
   15.3160    1.8737   13.0222 S   0  0  0  0  0  0  0  0  0  0  0  0
   15.5843    2.2481   11.6482 O   0  0  0  0  0  0  0  0  0  0  0  0
   16.2480    2.2249   14.0696 O   0  0  0  0  0  0  0  0  0  0  0  0
   13.6932    2.4812   13.4685 C   0  0  0  0  0  0  0  0  0  0  0  0
   13.7662    3.5713   14.5526 C   0  0  0  0  0  0  0  0  0  0  0  0
   13.0574    3.2119   15.7622 O   0  0  0  0  0  0  0  0  0  0  0  0
   13.8610    2.7322   16.7556 C   0  0  0  0  0  0  0  0  0  0  0  0
   14.0939    3.4177   17.9433 C   0  0  0  0  0  0  0  0  0  0  0  0
   14.8156    2.7975   18.9907 C   0  0  0  0  0  0  0  0  0  0  0  0
   15.3002    1.4921   18.8530 C   0  0  0  0  0  0  0  0  0  0  0  0
   15.0280    0.8250   17.6720 C   0  0  0  0  0  0  0  0  0  0  0  0
   15.2801   -0.4995   17.4007 N   0  0  0  0  0  0  0  0  0  0  0  0
   15.8738   -1.6134   18.2960 C   0  0  0  0  0  0  0  0  0  0  0  0
   16.3111   -1.5625   19.3732 O   0  0  0  0  0  0  0  0  0  0  0  0
   15.6519   -2.8304   17.4522 C   0  0  0  0  0  0  0  0  0  0  0  0
   14.3318   -3.1048   17.5230 C   0  0  0  0  0  0  0  0  0  0  0  0
   13.4261   -2.9596   16.4243 C   0  0  0  0  0  0  0  0  0  0  0  0
   12.2598   -3.6682   16.2822 C   0  0  0  0  0  0  0  0  0  0  0  0
   11.3141   -2.9732   15.0357 S   0  0  0  0  0  0  0  0  0  0  0  0
   12.5252   -1.8038   14.7793 C   0  0  0  0  0  0  0  0  0  0  0  0
   13.5873   -1.8839   15.5559 N   0  0  0  0  0  0  0  0  0  0  0  0
   14.3066    1.4379   16.6460 C   0  0  0  0  0  0  0  0  0  0  0  0
   16.0603   -0.3254   12.6425 H   0  0  0  0  0  0  0  0  0  0  0  0
   14.2954   -0.1733   12.4188 H   0  0  0  0  0  0  0  0  0  0  0  0
   15.0074   -0.2236   14.0716 H   0  0  0  0  0  0  0  0  0  0  0  0
   13.2573    2.8855   12.5489 H   0  0  0  0  0  0  0  0  0  0  0  0
   13.0816    1.6340   13.7892 H   0  0  0  0  0  0  0  0  0  0  0  0
   14.7728    3.9386   14.7804 H   0  0  0  0  0  0  0  0  0  0  0  0
   13.2233    4.4443   14.1698 H   0  0  0  0  0  0  0  0  0  0  0  0
   13.7071    4.4236   18.0784 H   0  0  0  0  0  0  0  0  0  0  0  0
   14.9877    3.3391   19.9182 H   0  0  0  0  0  0  0  0  0  0  0  0
   15.8342    1.0118   19.6670 H   0  0  0  0  0  0  0  0  0  0  0  0
   14.9135   -0.9103   16.5439 H   0  0  0  0  0  0  0  0  0  0  0  0
   16.1758   -2.8047   16.5010 H   0  0  0  0  0  0  0  0  0  0  0  0
   13.8461   -3.0326   18.4996 H   0  0  0  0  0  0  0  0  0  0  0  0
   11.9040   -4.5130   16.8519 H   0  0  0  0  0  0  0  0  0  0  0  0
   12.4040   -1.0456   14.0185 H   0  0  0  0  0  0  0  0  0  0  0  0
   14.0291    0.8655   15.7724 H   0  0  0  0  0  0  0  0  0  0  0  0
  1  2  1  0
  2  3  2  0
  2  4  2  0
  2  5  1  0
  5  6  1  0
  6  7  1  0
  7  8  1  0
  8  9  2  0
  9 10  1  0
 10 11  2  0
 11 12  1  0
 12 13  1  0
 13 14  1  0
 14 15  2  0
 14 16  1  0
 16 17  2  3
 17 18  1  0
 18 19  2  0
 19 20  1  0
 20 21  1  0
 21 22  2  0
 12 23  2  0
 23  8  1  0
 22 18  1  0
  1 24  1  0
  1 25  1  0
  1 26  1  0
  5 27  1  0
  5 28  1  0
  6 29  1  0
  6 30  1  0
  9 31  1  0
 10 32  1  0
 11 33  1  0
 13 34  1  0
 16 35  1  0
 17 36  1  0
 19 37  1  0
 21 38  1  0
 23 39  1  0
M  END
>  <Energy>  (1270) 
33.233710484038269

>  <compound_id>  (1270) 
6688

>  <target_id>  (1270) 
1

>  <reference_id>  (1270) 
111

>  <inspiration_ids>  (1270) 
[111, 71]

>  <energy_score>  (1270) 
-16.92756685620911

>  <distance_score>  (1270) 
1.5526706675214887

>  <path>  (1270) 
/opt/xchem-fragalysis-2/maxwin/BulkDock/SCRATCH/511018/C6688-P111/C6688-P111.minimised.mol

>  <scratch_subdir>  (1270) 
/opt/xchem-fragalysis-2/maxwin/BulkDock/SCRATCH/511018/C6688-P111

>  <fragmenstein_runtime>  (1270) 
5.0398688316345215

>  <fragmenstein_outcome>  (1270) 
too moved

>  <fragmenstein_mode>  (1270) 
expansion

>  <fragmenstein_error>  (1270) 


$$$$
C6688-P71
     RDKit          3D

 39 40  0  0  0  0  0  0  0  0999 V2000
   15.0254    0.1632   12.9933 C   0  0  0  0  0  0  0  0  0  0  0  0
   15.1932    1.9273   12.8954 S   0  0  0  0  0  0  0  0  0  0  0  0
   15.4898    2.2186   11.5057 O   0  0  0  0  0  0  0  0  0  0  0  0
   16.1046    2.3577   13.9307 O   0  0  0  0  0  0  0  0  0  0  0  0
   13.5757    2.5733   13.2599 C   0  0  0  0  0  0  0  0  0  0  0  0
   13.1047    2.3237   14.6961 C   0  0  0  0  0  0  0  0  0  0  0  0
   13.7403    3.1828   15.6650 O   0  0  0  0  0  0  0  0  0  0  0  0
   14.2409    2.5952   16.7943 C   0  0  0  0  0  0  0  0  0  0  0  0
   14.1479    3.2243   18.0341 C   0  0  0  0  0  0  0  0  0  0  0  0
   14.6246    2.5849   19.2060 C   0  0  0  0  0  0  0  0  0  0  0  0
   15.1656    1.2966   19.1501 C   0  0  0  0  0  0  0  0  0  0  0  0
   15.2480    0.6957   17.9088 C   0  0  0  0  0  0  0  0  0  0  0  0
   15.4185   -0.6472   17.6614 N   0  0  0  0  0  0  0  0  0  0  0  0
   15.8087   -1.8015   18.6122 C   0  0  0  0  0  0  0  0  0  0  0  0
   16.1208   -1.7827   19.7325 O   0  0  0  0  0  0  0  0  0  0  0  0
   15.5821   -2.9913   17.7316 C   0  0  0  0  0  0  0  0  0  0  0  0
   14.2434   -3.1563   17.6854 C   0  0  0  0  0  0  0  0  0  0  0  0
   13.4326   -3.0068   16.5179 C   0  0  0  0  0  0  0  0  0  0  0  0
   12.2736   -3.7095   16.2999 C   0  0  0  0  0  0  0  0  0  0  0  0
   11.3936   -2.9907   15.0225 S   0  0  0  0  0  0  0  0  0  0  0  0
   12.6308   -1.8349   14.8400 C   0  0  0  0  0  0  0  0  0  0  0  0
   13.6555   -1.9325   15.6641 N   0  0  0  0  0  0  0  0  0  0  0  0
   14.8748    1.3764   16.7502 C   0  0  0  0  0  0  0  0  0  0  0  0
   15.9653   -0.2820   12.6583 H   0  0  0  0  0  0  0  0  0  0  0  0
   14.2165   -0.1493   12.3302 H   0  0  0  0  0  0  0  0  0  0  0  0
   14.8302   -0.1401   14.0150 H   0  0  0  0  0  0  0  0  0  0  0  0
   13.6285    3.6491   13.0620 H   0  0  0  0  0  0  0  0  0  0  0  0
   12.8854    2.1168   12.5435 H   0  0  0  0  0  0  0  0  0  0  0  0
   12.0416    2.5922   14.7377 H   0  0  0  0  0  0  0  0  0  0  0  0
   13.1411    1.2608   14.9486 H   0  0  0  0  0  0  0  0  0  0  0  0
   13.6816    4.2031   18.1103 H   0  0  0  0  0  0  0  0  0  0  0  0
   14.5216    3.0862   20.1654 H   0  0  0  0  0  0  0  0  0  0  0  0
   15.4392    0.7696   20.0583 H   0  0  0  0  0  0  0  0  0  0  0  0
   15.2817   -1.0119   16.7220 H   0  0  0  0  0  0  0  0  0  0  0  0
   16.1940   -3.0221   16.8360 H   0  0  0  0  0  0  0  0  0  0  0  0
   13.6838   -3.0291   18.6160 H   0  0  0  0  0  0  0  0  0  0  0  0
   11.8776   -4.5511   16.8450 H   0  0  0  0  0  0  0  0  0  0  0  0
   12.5485   -1.0717   14.0806 H   0  0  0  0  0  0  0  0  0  0  0  0
   15.0403    0.8921   15.8022 H   0  0  0  0  0  0  0  0  0  0  0  0
  1  2  1  0
  2  3  2  0
  2  4  2  0
  2  5  1  0
  5  6  1  0
  6  7  1  0
  7  8  1  0
  8  9  2  0
  9 10  1  0
 10 11  2  0
 11 12  1  0
 12 13  1  0
 13 14  1  0
 14 15  2  0
 14 16  1  0
 16 17  2  3
 17 18  1  0
 18 19  2  0
 19 20  1  0
 20 21  1  0
 21 22  2  0
 12 23  2  0
 23  8  1  0
 22 18  1  0
  1 24  1  0
  1 25  1  0
  1 26  1  0
  5 27  1  0
  5 28  1  0
  6 29  1  0
  6 30  1  0
  9 31  1  0
 10 32  1  0
 11 33  1  0
 13 34  1  0
 16 35  1  0
 17 36  1  0
 19 37  1  0
 21 38  1  0
 23 39  1  0
M  END
>  <Energy>  (1271) 
37.745704847659283

>  <compound_id>  (1271) 
6688

>  <target_id>  (1271) 
1

>  <reference_id>  (1271) 
71

>  <inspiration_ids>  (1271) 
[111, 71]

>  <energy_score>  (1271) 
-12.415572492586904

>  <distance_score>  (1271) 
1.5703092492664281

>  <path>  (1271) 
/opt/xchem-fragalysis-2/maxwin/BulkDock/SCRATCH/511018/C6688-P71/C6688-P71.minimised.mol

>  <scratch_subdir>  (1271) 
/opt/xchem-fragalysis-2/maxwin/BulkDock/SCRATCH/511018/C6688-P71

>  <fragmenstein_runtime>  (1271) 
5.499758958816528

>  <fragmenstein_outcome>  (1271) 
too moved

>  <fragmenstein_mode>  (1271) 
expansion

>  <fragmenstein_error>  (1271) 


$$$$
C6690-P111
     RDKit          3D

 41 42  0  0  0  0  0  0  0  0999 V2000
   13.9738    0.9464   11.9808 C   0  0  0  0  0  0  0  0  0  0  0  0
   14.9740    2.1018   12.8800 S   0  0  0  0  0  0  0  0  0  0  0  0
   16.3503    1.6528   12.8071 O   0  0  0  0  0  0  0  0  0  0  0  0
   14.6066    3.4232   12.4137 O   0  0  0  0  0  0  0  0  0  0  0  0
   14.4072    1.9555   14.5619 C   0  0  0  0  0  0  0  0  0  0  0  0
   14.4690    3.3296   15.2418 C   0  0  0  0  0  0  0  0  0  0  0  0
   14.1584    3.2871   16.6428 O   0  0  0  0  0  0  0  0  0  0  0  0
   15.1121    2.7349   17.4561 C   0  0  0  0  0  0  0  0  0  0  0  0
   14.6229    2.1283   18.6173 C   0  0  0  0  0  0  0  0  0  0  0  0
   15.3559    1.1039   19.1947 C   0  0  0  0  0  0  0  0  0  0  0  0
   16.5026    0.6955   18.5193 C   0  0  0  0  0  0  0  0  0  0  0  0
   16.5166   -0.6170   18.0700 N   0  0  0  0  0  0  0  0  0  0  0  0
   15.5827   -1.8078   18.4104 C   0  0  0  0  0  0  0  0  0  0  0  0
   14.7075   -1.8871   19.1788 O   0  0  0  0  0  0  0  0  0  0  0  0
   15.9531   -2.9029   17.4399 C   0  0  0  0  0  0  0  0  0  0  0  0
   14.6977   -3.6481   17.0326 C   0  0  0  0  0  0  0  0  0  0  0  0
   13.6017   -2.9120   16.3190 C   0  0  0  0  0  0  0  0  0  0  0  0
   12.3194   -3.4190   16.1953 C   0  0  0  0  0  0  0  0  0  0  0  0
   11.3678   -2.4169   15.1994 S   0  0  0  0  0  0  0  0  0  0  0  0
   12.6983   -1.3632   15.0413 C   0  0  0  0  0  0  0  0  0  0  0  0
   13.8122   -1.7120   15.6518 N   0  0  0  0  0  0  0  0  0  0  0  0
   17.1905    1.5707   17.6839 C   0  0  0  0  0  0  0  0  0  0  0  0
   16.4589    2.6019   17.1144 C   0  0  0  0  0  0  0  0  0  0  0  0
   12.9231    1.2173   12.0993 H   0  0  0  0  0  0  0  0  0  0  0  0
   14.1628   -0.0573   12.3653 H   0  0  0  0  0  0  0  0  0  0  0  0
   14.2566    1.0010   10.9276 H   0  0  0  0  0  0  0  0  0  0  0  0
   13.3647    1.6294   14.5451 H   0  0  0  0  0  0  0  0  0  0  0  0
   14.9989    1.1876   15.0647 H   0  0  0  0  0  0  0  0  0  0  0  0
   15.4093    3.8604   15.0554 H   0  0  0  0  0  0  0  0  0  0  0  0
   13.6962    3.9690   14.7969 H   0  0  0  0  0  0  0  0  0  0  0  0
   13.6054    2.3146   18.9475 H   0  0  0  0  0  0  0  0  0  0  0  0
   14.8713    0.4689   19.9327 H   0  0  0  0  0  0  0  0  0  0  0  0
   17.2224   -0.9185   17.4108 H   0  0  0  0  0  0  0  0  0  0  0  0
   16.6584   -3.5772   17.9372 H   0  0  0  0  0  0  0  0  0  0  0  0
   16.4338   -2.5065   16.5394 H   0  0  0  0  0  0  0  0  0  0  0  0
   15.0139   -4.4529   16.3600 H   0  0  0  0  0  0  0  0  0  0  0  0
   14.2660   -4.1302   17.9196 H   0  0  0  0  0  0  0  0  0  0  0  0
   11.9250   -4.3373   16.6081 H   0  0  0  0  0  0  0  0  0  0  0  0
   12.6081   -0.4688   14.4476 H   0  0  0  0  0  0  0  0  0  0  0  0
   18.1468    1.3032   17.2430 H   0  0  0  0  0  0  0  0  0  0  0  0
   16.9134    3.1638   16.3063 H   0  0  0  0  0  0  0  0  0  0  0  0
  1  2  1  0
  2  3  2  0
  2  4  2  0
  2  5  1  0
  5  6  1  0
  6  7  1  0
  7  8  1  0
  8  9  2  0
  9 10  1  0
 10 11  2  0
 11 12  1  0
 12 13  1  0
 13 14  2  0
 13 15  1  0
 15 16  1  0
 16 17  1  0
 17 18  2  0
 18 19  1  0
 19 20  1  0
 20 21  2  0
 11 22  1  0
 22 23  2  0
 23  8  1  0
 21 17  1  0
  1 24  1  0
  1 25  1  0
  1 26  1  0
  5 27  1  0
  5 28  1  0
  6 29  1  0
  6 30  1  0
  9 31  1  0
 10 32  1  0
 12 33  1  0
 15 34  1  0
 15 35  1  0
 16 36  1  0
 16 37  1  0
 18 38  1  0
 20 39  1  0
 22 40  1  0
 23 41  1  0
M  END
>  <Energy>  (1272) 
43.064947008903907

>  <compound_id>  (1272) 
6690

>  <target_id>  (1272) 
1

>  <reference_id>  (1272) 
111

>  <inspiration_ids>  (1272) 
[111, 71]

>  <energy_score>  (1272) 
-50.487332522197676

>  <distance_score>  (1272) 
1.6695031397045368

>  <path>  (1272) 
/opt/xchem-fragalysis-2/maxwin/BulkDock/SCRATCH/511018/C6690-P111/C6690-P111.minimised.mol

>  <scratch_subdir>  (1272) 
/opt/xchem-fragalysis-2/maxwin/BulkDock/SCRATCH/511018/C6690-P111

>  <fragmenstein_runtime>  (1272) 
4.544468879699707

>  <fragmenstein_outcome>  (1272) 
too moved

>  <fragmenstein_mode>  (1272) 
expansion

>  <fragmenstein_error>  (1272) 


$$$$
C6690-P71
     RDKit          3D

 41 42  0  0  0  0  0  0  0  0999 V2000
   13.9578    0.8373   12.0780 C   0  0  0  0  0  0  0  0  0  0  0  0
   15.0580    2.0088   12.8259 S   0  0  0  0  0  0  0  0  0  0  0  0
   16.4171    1.6085   12.5215 O   0  0  0  0  0  0  0  0  0  0  0  0
   14.5754    3.3265   12.4649 O   0  0  0  0  0  0  0  0  0  0  0  0
   14.7810    1.8050   14.5669 C   0  0  0  0  0  0  0  0  0  0  0  0
   15.3235    3.0236   15.3159 C   0  0  0  0  0  0  0  0  0  0  0  0
   14.8502    3.0886   16.6680 O   0  0  0  0  0  0  0  0  0  0  0  0
   15.4093    2.2377   17.5776 C   0  0  0  0  0  0  0  0  0  0  0  0
   14.6155    1.9741   18.6993 C   0  0  0  0  0  0  0  0  0  0  0  0
   14.8392    0.8178   19.4300 C   0  0  0  0  0  0  0  0  0  0  0  0
   15.8266   -0.0493   18.9794 C   0  0  0  0  0  0  0  0  0  0  0  0
   15.4363   -1.3714   18.8391 N   0  0  0  0  0  0  0  0  0  0  0  0
   16.1771   -2.5773   18.2107 C   0  0  0  0  0  0  0  0  0  0  0  0
   17.2611   -2.6611   17.7841 O   0  0  0  0  0  0  0  0  0  0  0  0
   15.1716   -3.7011   18.1313 C   0  0  0  0  0  0  0  0  0  0  0  0
   14.6648   -3.6868   16.6871 C   0  0  0  0  0  0  0  0  0  0  0  0
   13.4776   -2.8284   16.3688 C   0  0  0  0  0  0  0  0  0  0  0  0
   12.2242   -3.3089   16.0384 C   0  0  0  0  0  0  0  0  0  0  0  0
   11.2585   -2.0549   15.3949 S   0  0  0  0  0  0  0  0  0  0  0  0
   12.4950   -0.9429   15.7710 C   0  0  0  0  0  0  0  0  0  0  0  0
   13.6083   -1.4528   16.2518 N   0  0  0  0  0  0  0  0  0  0  0  0
   16.8409    0.3988   18.1382 C   0  0  0  0  0  0  0  0  0  0  0  0
   16.6088    1.5524   17.4000 C   0  0  0  0  0  0  0  0  0  0  0  0
   14.0715    0.9069   10.9944 H   0  0  0  0  0  0  0  0  0  0  0  0
   12.9326    1.0811   12.3626 H   0  0  0  0  0  0  0  0  0  0  0  0
   14.2255   -0.1646   12.4186 H   0  0  0  0  0  0  0  0  0  0  0  0
   13.7011    1.7383   14.7217 H   0  0  0  0  0  0  0  0  0  0  0  0
   15.2418    0.8695   14.8923 H   0  0  0  0  0  0  0  0  0  0  0  0
   16.4133    3.1121   15.2479 H   0  0  0  0  0  0  0  0  0  0  0  0
   14.9409    3.9394   14.8513 H   0  0  0  0  0  0  0  0  0  0  0  0
   13.7275    2.5735   18.8879 H   0  0  0  0  0  0  0  0  0  0  0  0
   14.1067    0.4976   20.1636 H   0  0  0  0  0  0  0  0  0  0  0  0
   14.4754   -1.6263   19.0285 H   0  0  0  0  0  0  0  0  0  0  0  0
   14.3634   -3.6197   18.8635 H   0  0  0  0  0  0  0  0  0  0  0  0
   15.7109   -4.6325   18.3395 H   0  0  0  0  0  0  0  0  0  0  0  0
   15.4679   -3.4227   15.9859 H   0  0  0  0  0  0  0  0  0  0  0  0
   14.3928   -4.7162   16.4313 H   0  0  0  0  0  0  0  0  0  0  0  0
   11.8658   -4.3274   16.0652 H   0  0  0  0  0  0  0  0  0  0  0  0
   12.3614    0.1174   15.6129 H   0  0  0  0  0  0  0  0  0  0  0  0
   17.6658   -0.2458   17.8469 H   0  0  0  0  0  0  0  0  0  0  0  0
   17.3114    1.7981   16.6121 H   0  0  0  0  0  0  0  0  0  0  0  0
  1  2  1  0
  2  3  2  0
  2  4  2  0
  2  5  1  0
  5  6  1  0
  6  7  1  0
  7  8  1  0
  8  9  2  0
  9 10  1  0
 10 11  2  0
 11 12  1  0
 12 13  1  0
 13 14  2  0
 13 15  1  0
 15 16  1  0
 16 17  1  0
 17 18  2  0
 18 19  1  0
 19 20  1  0
 20 21  2  0
 11 22  1  0
 22 23  2  0
 23  8  1  0
 21 17  1  0
  1 24  1  0
  1 25  1  0
  1 26  1  0
  5 27  1  0
  5 28  1  0
  6 29  1  0
  6 30  1  0
  9 31  1  0
 10 32  1  0
 12 33  1  0
 15 34  1  0
 15 35  1  0
 16 36  1  0
 16 37  1  0
 18 38  1  0
 20 39  1  0
 22 40  1  0
 23 41  1  0
M  END
>  <Energy>  (1273) 
32.121844329616586

>  <compound_id>  (1273) 
6690

>  <target_id>  (1273) 
1

>  <reference_id>  (1273) 
71

>  <inspiration_ids>  (1273) 
[111, 71]

>  <energy_score>  (1273) 
-61.430435201483874

>  <distance_score>  (1273) 
1.8276266200251365

>  <path>  (1273) 
/opt/xchem-fragalysis-2/maxwin/BulkDock/SCRATCH/511018/C6690-P71/C6690-P71.minimised.mol

>  <scratch_subdir>  (1273) 
/opt/xchem-fragalysis-2/maxwin/BulkDock/SCRATCH/511018/C6690-P71

>  <fragmenstein_runtime>  (1273) 
4.818819999694824

>  <fragmenstein_outcome>  (1273) 
too moved

>  <fragmenstein_mode>  (1273) 
expansion

>  <fragmenstein_error>  (1273) 


$$$$
C6695-P111
     RDKit          3D

 40 41  0  0  0  0  0  0  0  0999 V2000
   14.0287    1.1152   12.7079 C   0  0  0  0  0  0  0  0  0  0  0  0
   15.1973    1.8998   13.7996 S   0  0  0  0  0  0  0  0  0  0  0  0
   14.7863    3.2850   13.9231 O   0  0  0  0  0  0  0  0  0  0  0  0
   16.5219    1.5650   13.3138 O   0  0  0  0  0  0  0  0  0  0  0  0
   14.9331    1.1104   15.3849 C   0  0  0  0  0  0  0  0  0  0  0  0
   15.6785    1.7982   16.5441 C   0  0  0  0  0  0  0  0  0  0  0  0
   15.1705    1.3358   17.8385 O   0  0  0  0  0  0  0  0  0  0  0  0
   16.1607    1.1981   18.7816 C   0  0  0  0  0  0  0  0  0  0  0  0
   16.9308    2.2661   19.2134 C   0  0  0  0  0  0  0  0  0  0  0  0
   17.9461    2.0423   20.1391 C   0  0  0  0  0  0  0  0  0  0  0  0
   18.1475    0.7487   20.5932 C   0  0  0  0  0  0  0  0  0  0  0  0
   17.4049   -0.3070   20.2007 N   0  0  0  0  0  0  0  0  0  0  0  0
   16.4102   -0.0611   19.3301 C   0  0  0  0  0  0  0  0  0  0  0  0
   15.5920   -1.0811   18.9003 N   0  0  0  0  0  0  0  0  0  0  0  0
   15.7029   -2.6136   19.1031 C   0  0  0  0  0  0  0  0  0  0  0  0
   16.4617   -3.2406   19.7299 O   0  0  0  0  0  0  0  0  0  0  0  0
   14.5806   -3.2220   18.2884 C   0  0  0  0  0  0  0  0  0  0  0  0
   14.7120   -2.8815   16.8039 C   0  0  0  0  0  0  0  0  0  0  0  0
   13.3969   -2.5705   16.1679 C   0  0  0  0  0  0  0  0  0  0  0  0
   12.3411   -3.4499   16.0463 C   0  0  0  0  0  0  0  0  0  0  0  0
   11.1206   -2.7600   15.0792 S   0  0  0  0  0  0  0  0  0  0  0  0
   12.0092   -1.3112   14.9962 C   0  0  0  0  0  0  0  0  0  0  0  0
   13.1731   -1.3169   15.6115 N   0  0  0  0  0  0  0  0  0  0  0  0
   14.1465    1.5485   11.7126 H   0  0  0  0  0  0  0  0  0  0  0  0
   14.2407    0.0448   12.6787 H   0  0  0  0  0  0  0  0  0  0  0  0
   13.0199    1.3014   13.0802 H   0  0  0  0  0  0  0  0  0  0  0  0
   13.8579    1.1466   15.5810 H   0  0  0  0  0  0  0  0  0  0  0  0
   15.2543    0.0705   15.2956 H   0  0  0  0  0  0  0  0  0  0  0  0
   15.5228    2.8821   16.5103 H   0  0  0  0  0  0  0  0  0  0  0  0
   16.7538    1.6022   16.4417 H   0  0  0  0  0  0  0  0  0  0  0  0
   16.7507    3.2685   18.8382 H   0  0  0  0  0  0  0  0  0  0  0  0
   18.5683    2.8555   20.4960 H   0  0  0  0  0  0  0  0  0  0  0  0
   18.9314    0.5192   21.3096 H   0  0  0  0  0  0  0  0  0  0  0  0
   14.7647   -0.8708   18.3585 H   0  0  0  0  0  0  0  0  0  0  0  0
   14.6145   -4.3080   18.4253 H   0  0  0  0  0  0  0  0  0  0  0  0
   13.6339   -2.8866   18.7208 H   0  0  0  0  0  0  0  0  0  0  0  0
   15.1466   -3.7470   16.2859 H   0  0  0  0  0  0  0  0  0  0  0  0
   15.4098   -2.0601   16.6092 H   0  0  0  0  0  0  0  0  0  0  0  0
   12.2595   -4.4610   16.4216 H   0  0  0  0  0  0  0  0  0  0  0  0
   11.6252   -0.4536   14.4591 H   0  0  0  0  0  0  0  0  0  0  0  0
  1  2  1  0
  2  3  2  0
  2  4  2  0
  2  5  1  0
  5  6  1  0
  6  7  1  0
  7  8  1  0
  8  9  2  0
  9 10  1  0
 10 11  2  0
 11 12  1  0
 12 13  2  0
 13 14  1  0
 14 15  1  0
 15 16  2  0
 15 17  1  0
 17 18  1  0
 18 19  1  0
 19 20  2  0
 20 21  1  0
 21 22  1  0
 22 23  2  0
 13  8  1  0
 23 19  1  0
  1 24  1  0
  1 25  1  0
  1 26  1  0
  5 27  1  0
  5 28  1  0
  6 29  1  0
  6 30  1  0
  9 31  1  0
 10 32  1  0
 11 33  1  0
 14 34  1  0
 17 35  1  0
 17 36  1  0
 18 37  1  0
 18 38  1  0
 20 39  1  0
 22 40  1  0
M  END
>  <Energy>  (1274) 
7.2832463985840477

>  <compound_id>  (1274) 
6695

>  <target_id>  (1274) 
1

>  <reference_id>  (1274) 
111

>  <inspiration_ids>  (1274) 
[111, 71]

>  <energy_score>  (1274) 
-86.7809866535321

>  <distance_score>  (1274) 
2.0541447308982757

>  <path>  (1274) 
/opt/xchem-fragalysis-2/maxwin/BulkDock/SCRATCH/511018/C6695-P111/C6695-P111.minimised.mol

>  <scratch_subdir>  (1274) 
/opt/xchem-fragalysis-2/maxwin/BulkDock/SCRATCH/511018/C6695-P111

>  <fragmenstein_runtime>  (1274) 
3.482844829559326

>  <fragmenstein_outcome>  (1274) 
too moved

>  <fragmenstein_mode>  (1274) 
expansion

>  <fragmenstein_error>  (1274) 


$$$$
C6695-P71
     RDKit          3D

 40 41  0  0  0  0  0  0  0  0999 V2000
   14.0072    1.1407   12.7087 C   0  0  0  0  0  0  0  0  0  0  0  0
   15.2015    1.8858   13.8007 S   0  0  0  0  0  0  0  0  0  0  0  0
   14.8339    3.2823   13.9299 O   0  0  0  0  0  0  0  0  0  0  0  0
   16.5143    1.5135   13.3089 O   0  0  0  0  0  0  0  0  0  0  0  0
   14.9164    1.0934   15.3807 C   0  0  0  0  0  0  0  0  0  0  0  0
   15.6637    1.7614   16.5496 C   0  0  0  0  0  0  0  0  0  0  0  0
   15.1569    1.2749   17.8344 O   0  0  0  0  0  0  0  0  0  0  0  0
   16.1342    1.1456   18.7908 C   0  0  0  0  0  0  0  0  0  0  0  0
   16.9151    2.2111   19.2101 C   0  0  0  0  0  0  0  0  0  0  0  0
   17.9120    1.9940   20.1571 C   0  0  0  0  0  0  0  0  0  0  0  0
   18.0841    0.7092   20.6462 C   0  0  0  0  0  0  0  0  0  0  0  0
   17.3305   -0.3438   20.2677 N   0  0  0  0  0  0  0  0  0  0  0  0
   16.3557   -0.1049   19.3720 C   0  0  0  0  0  0  0  0  0  0  0  0
   15.5374   -1.1276   18.9461 N   0  0  0  0  0  0  0  0  0  0  0  0
   15.6252   -2.6564   19.1920 C   0  0  0  0  0  0  0  0  0  0  0  0
   16.3595   -3.2750   19.8559 O   0  0  0  0  0  0  0  0  0  0  0  0
   14.5225   -3.2779   18.3590 C   0  0  0  0  0  0  0  0  0  0  0  0
   14.6952   -2.9627   16.8727 C   0  0  0  0  0  0  0  0  0  0  0  0
   13.4000   -2.6233   16.2143 C   0  0  0  0  0  0  0  0  0  0  0  0
   12.3517   -3.4982   16.0223 C   0  0  0  0  0  0  0  0  0  0  0  0
   11.1477   -2.7583   15.0747 S   0  0  0  0  0  0  0  0  0  0  0  0
   12.0291   -1.3029   15.0940 C   0  0  0  0  0  0  0  0  0  0  0  0
   13.1830   -1.3416   15.7265 N   0  0  0  0  0  0  0  0  0  0  0  0
   14.1322    1.5778   11.7159 H   0  0  0  0  0  0  0  0  0  0  0  0
   14.1901    0.0653   12.6713 H   0  0  0  0  0  0  0  0  0  0  0  0
   13.0053    1.3508   13.0872 H   0  0  0  0  0  0  0  0  0  0  0  0
   13.8406    1.1444   15.5702 H   0  0  0  0  0  0  0  0  0  0  0  0
   15.2218    0.0488   15.2868 H   0  0  0  0  0  0  0  0  0  0  0  0
   15.5088    2.8458   16.5333 H   0  0  0  0  0  0  0  0  0  0  0  0
   16.7385    1.5643   16.4439 H   0  0  0  0  0  0  0  0  0  0  0  0
   16.7560    3.2076   18.8098 H   0  0  0  0  0  0  0  0  0  0  0  0
   18.5418    2.8058   20.5036 H   0  0  0  0  0  0  0  0  0  0  0  0
   18.8526    0.4847   21.3806 H   0  0  0  0  0  0  0  0  0  0  0  0
   14.7271   -0.9225   18.3758 H   0  0  0  0  0  0  0  0  0  0  0  0
   13.5659   -2.9297   18.7604 H   0  0  0  0  0  0  0  0  0  0  0  0
   14.5473   -4.3639   18.5119 H   0  0  0  0  0  0  0  0  0  0  0  0
   15.1121   -3.8487   16.3749 H   0  0  0  0  0  0  0  0  0  0  0  0
   15.4202   -2.1649   16.6780 H   0  0  0  0  0  0  0  0  0  0  0  0
   12.2652   -4.5273   16.3426 H   0  0  0  0  0  0  0  0  0  0  0  0
   11.6503   -0.4149   14.6049 H   0  0  0  0  0  0  0  0  0  0  0  0
  1  2  1  0
  2  3  2  0
  2  4  2  0
  2  5  1  0
  5  6  1  0
  6  7  1  0
  7  8  1  0
  8  9  2  0
  9 10  1  0
 10 11  2  0
 11 12  1  0
 12 13  2  0
 13 14  1  0
 14 15  1  0
 15 16  2  0
 15 17  1  0
 17 18  1  0
 18 19  1  0
 19 20  2  0
 20 21  1  0
 21 22  1  0
 22 23  2  0
 13  8  1  0
 23 19  1  0
  1 24  1  0
  1 25  1  0
  1 26  1  0
  5 27  1  0
  5 28  1  0
  6 29  1  0
  6 30  1  0
  9 31  1  0
 10 32  1  0
 11 33  1  0
 14 34  1  0
 17 35  1  0
 17 36  1  0
 18 37  1  0
 18 38  1  0
 20 39  1  0
 22 40  1  0
M  END
>  <Energy>  (1275) 
7.0537405376435718

>  <compound_id>  (1275) 
6695

>  <target_id>  (1275) 
1

>  <reference_id>  (1275) 
71

>  <inspiration_ids>  (1275) 
[111, 71]

>  <energy_score>  (1275) 
-87.01049251447229

>  <distance_score>  (1275) 
2.2154877388181493

>  <path>  (1275) 
/opt/xchem-fragalysis-2/maxwin/BulkDock/SCRATCH/511018/C6695-P71/C6695-P71.minimised.mol

>  <scratch_subdir>  (1275) 
/opt/xchem-fragalysis-2/maxwin/BulkDock/SCRATCH/511018/C6695-P71

>  <fragmenstein_runtime>  (1275) 
3.108473777770996

>  <fragmenstein_outcome>  (1275) 
too moved

>  <fragmenstein_mode>  (1275) 
expansion

>  <fragmenstein_error>  (1275) 


$$$$
C6509-P56
     RDKit          3D

 33 34  0  0  0  0  0  0  0  0999 V2000
    2.3963   -4.8080   31.3009 C   0  0  0  0  0  0  0  0  0  0  0  0
    3.7023   -4.3509   30.8275 N   0  0  0  0  0  0  0  0  0  0  0  0
    4.5617   -3.6933   31.7404 C   0  0  0  0  0  0  0  0  0  0  0  0
    4.4764   -3.9685   33.1196 C   0  0  0  0  0  0  0  0  0  0  0  0
    5.3325   -3.3324   34.0015 C   0  0  0  0  0  0  0  0  0  0  0  0
    6.2820   -2.4601   33.6101 N   0  0  0  0  0  0  0  0  0  0  0  0
    6.3895   -2.2347   32.2726 C   0  0  0  0  0  0  0  0  0  0  0  0
    5.6127   -2.8418   31.2869 C   0  0  0  0  0  0  0  0  0  0  0  0
    5.7832   -2.4135   29.8332 C   0  0  0  0  0  0  0  0  0  0  0  0
    4.7426   -2.2685   29.2537 O   0  0  0  0  0  0  0  0  0  0  0  0
    7.1506   -2.1568   29.4061 N   0  0  0  0  0  0  0  0  0  0  0  0
    7.6799   -1.5478   28.1680 C   0  0  0  0  0  0  0  0  0  0  0  0
    8.9296   -2.2142   27.5288 C   0  0  0  0  0  0  0  0  0  0  0  0
    9.7018   -1.4133   26.5036 C   0  0  0  0  0  0  0  0  0  0  0  0
   10.8552   -1.7321   25.8045 C   0  0  0  0  0  0  0  0  0  0  0  0
   11.2750   -0.6864   25.0210 N   0  0  0  0  0  0  0  0  0  0  0  0
   10.3999    0.2670   25.2208 C   0  0  0  0  0  0  0  0  0  0  0  0
    9.4234   -0.1295   26.0934 N   0  0  0  0  0  0  0  0  0  0  0  0
    1.8104   -5.1517   30.4424 H   0  0  0  0  0  0  0  0  0  0  0  0
    1.8402   -3.9966   31.7818 H   0  0  0  0  0  0  0  0  0  0  0  0
    2.4923   -5.6526   31.9861 H   0  0  0  0  0  0  0  0  0  0  0  0
    3.6161   -3.7607   29.9871 H   0  0  0  0  0  0  0  0  0  0  0  0
    3.7533   -4.6681   33.5249 H   0  0  0  0  0  0  0  0  0  0  0  0
    5.2735   -3.5211   35.0706 H   0  0  0  0  0  0  0  0  0  0  0  0
    7.1382   -1.4885   32.0208 H   0  0  0  0  0  0  0  0  0  0  0  0
    7.7877   -2.4735   30.1270 H   0  0  0  0  0  0  0  0  0  0  0  0
    7.9259   -0.5189   28.4544 H   0  0  0  0  0  0  0  0  0  0  0  0
    6.8630   -1.4872   27.4420 H   0  0  0  0  0  0  0  0  0  0  0  0
    9.6305   -2.4555   28.3395 H   0  0  0  0  0  0  0  0  0  0  0  0
    8.6375   -3.1725   27.0953 H   0  0  0  0  0  0  0  0  0  0  0  0
   11.4091   -2.6623   25.8329 H   0  0  0  0  0  0  0  0  0  0  0  0
   10.4182    1.2507   24.7716 H   0  0  0  0  0  0  0  0  0  0  0  0
    8.6564    0.4492   26.4054 H   0  0  0  0  0  0  0  0  0  0  0  0
  1  2  1  0
  2  3  1  0
  3  4  2  0
  4  5  1  0
  5  6  2  0
  6  7  1  0
  7  8  2  0
  8  9  1  0
  9 10  2  0
  9 11  1  0
 11 12  1  0
 12 13  1  0
 13 14  1  0
 14 15  2  0
 15 16  1  0
 16 17  2  0
 17 18  1  0
  8  3  1  0
 18 14  1  0
  1 19  1  0
  1 20  1  0
  1 21  1  0
  2 22  1  0
  4 23  1  0
  5 24  1  0
  7 25  1  0
 11 26  1  0
 12 27  1  0
 12 28  1  0
 13 29  1  0
 13 30  1  0
 15 31  1  0
 17 32  1  0
 18 33  1  0
M  END
>  <Energy>  (1276) 
51.915488232422234

>  <compound_id>  (1276) 
6509

>  <target_id>  (1276) 
1

>  <reference_id>  (1276) 
56

>  <inspiration_ids>  (1276) 
[56, 63]

>  <energy_score>  (1276) 
-7.706760124536686

>  <distance_score>  (1276) 
7.867250413050078

>  <path>  (1276) 
/opt/xchem-fragalysis-2/maxwin/BulkDock/SCRATCH/511018/C6509-P56/C6509-P56.minimised.mol

>  <scratch_subdir>  (1276) 
/opt/xchem-fragalysis-2/maxwin/BulkDock/SCRATCH/511018/C6509-P56

>  <fragmenstein_runtime>  (1276) 
4.176053762435913

>  <fragmenstein_outcome>  (1276) 
too moved

>  <fragmenstein_mode>  (1276) 
expansion

>  <fragmenstein_error>  (1276) 


$$$$
C6509-P63
     RDKit          3D

 33 34  0  0  0  0  0  0  0  0999 V2000
    4.7723   -5.6497   33.0712 C   0  0  0  0  0  0  0  0  0  0  0  0
    5.2394   -5.0443   31.8196 N   0  0  0  0  0  0  0  0  0  0  0  0
    5.0469   -3.6426   31.6825 C   0  0  0  0  0  0  0  0  0  0  0  0
    3.9138   -3.0396   32.2662 C   0  0  0  0  0  0  0  0  0  0  0  0
    3.7420   -1.6729   32.1690 C   0  0  0  0  0  0  0  0  0  0  0  0
    4.5979   -0.8686   31.5135 N   0  0  0  0  0  0  0  0  0  0  0  0
    5.6520   -1.4674   30.8941 C   0  0  0  0  0  0  0  0  0  0  0  0
    5.9126   -2.8355   30.8829 C   0  0  0  0  0  0  0  0  0  0  0  0
    7.1860   -3.3483   30.2102 C   0  0  0  0  0  0  0  0  0  0  0  0
    7.7251   -4.2296   30.8218 O   0  0  0  0  0  0  0  0  0  0  0  0
    7.5972   -2.6397   29.0059 N   0  0  0  0  0  0  0  0  0  0  0  0
    8.7553   -2.8469   28.1058 C   0  0  0  0  0  0  0  0  0  0  0  0
    8.8971   -1.8227   26.9445 C   0  0  0  0  0  0  0  0  0  0  0  0
   10.2295   -1.7675   26.2390 C   0  0  0  0  0  0  0  0  0  0  0  0
   11.2040   -2.7080   25.9624 C   0  0  0  0  0  0  0  0  0  0  0  0
   12.1986   -2.1891   25.1715 N   0  0  0  0  0  0  0  0  0  0  0  0
   11.8696   -0.9352   24.9787 C   0  0  0  0  0  0  0  0  0  0  0  0
   10.7053   -0.6248   25.6246 N   0  0  0  0  0  0  0  0  0  0  0  0
    5.0916   -5.0690   33.9436 H   0  0  0  0  0  0  0  0  0  0  0  0
    3.6845   -5.7646   33.0758 H   0  0  0  0  0  0  0  0  0  0  0  0
    5.2104   -6.6480   33.1695 H   0  0  0  0  0  0  0  0  0  0  0  0
    6.2424   -5.2303   31.6681 H   0  0  0  0  0  0  0  0  0  0  0  0
    3.1705   -3.6151   32.8053 H   0  0  0  0  0  0  0  0  0  0  0  0
    2.8905   -1.1786   32.6274 H   0  0  0  0  0  0  0  0  0  0  0  0
    6.3231   -0.7600   30.4145 H   0  0  0  0  0  0  0  0  0  0  0  0
    6.8547   -2.0123   28.7212 H   0  0  0  0  0  0  0  0  0  0  0  0
    9.6437   -2.8243   28.7472 H   0  0  0  0  0  0  0  0  0  0  0  0
    8.6780   -3.8655   27.7104 H   0  0  0  0  0  0  0  0  0  0  0  0
    8.1128   -2.0215   26.2063 H   0  0  0  0  0  0  0  0  0  0  0  0
    8.6866   -0.8239   27.3497 H   0  0  0  0  0  0  0  0  0  0  0  0
   11.2189   -3.7497   26.2568 H   0  0  0  0  0  0  0  0  0  0  0  0
   12.4221   -0.2190   24.3850 H   0  0  0  0  0  0  0  0  0  0  0  0
   10.2559    0.2794   25.6153 H   0  0  0  0  0  0  0  0  0  0  0  0
  1  2  1  0
  2  3  1  0
  3  4  2  0
  4  5  1  0
  5  6  2  0
  6  7  1  0
  7  8  2  0
  8  9  1  0
  9 10  2  0
  9 11  1  0
 11 12  1  0
 12 13  1  0
 13 14  1  0
 14 15  2  0
 15 16  1  0
 16 17  2  0
 17 18  1  0
  8  3  1  0
 18 14  1  0
  1 19  1  0
  1 20  1  0
  1 21  1  0
  2 22  1  0
  4 23  1  0
  5 24  1  0
  7 25  1  0
 11 26  1  0
 12 27  1  0
 12 28  1  0
 13 29  1  0
 13 30  1  0
 15 31  1  0
 17 32  1  0
 18 33  1  0
M  END
>  <Energy>  (1277) 
51.300182175157516

>  <compound_id>  (1277) 
6509

>  <target_id>  (1277) 
1

>  <reference_id>  (1277) 
63

>  <inspiration_ids>  (1277) 
[56, 63]

>  <energy_score>  (1277) 
-8.322066181798206

>  <distance_score>  (1277) 
8.0458654573144

>  <path>  (1277) 
/opt/xchem-fragalysis-2/maxwin/BulkDock/SCRATCH/511018/C6509-P63/C6509-P63.minimised.mol

>  <scratch_subdir>  (1277) 
/opt/xchem-fragalysis-2/maxwin/BulkDock/SCRATCH/511018/C6509-P63

>  <fragmenstein_runtime>  (1277) 
5.3124823570251465

>  <fragmenstein_outcome>  (1277) 
too moved

>  <fragmenstein_mode>  (1277) 
expansion

>  <fragmenstein_error>  (1277) 


$$$$
C6526-P56
     RDKit          3D

 46 48  0  0  0  0  0  0  0  0999 V2000
    3.4038   -2.6079   24.2294 C   0  0  0  0  0  0  0  0  0  0  0  0
    4.7926   -1.9090   24.0544 C   0  0  0  0  0  0  0  0  0  0  0  0
    4.7060   -1.0236   25.5936 C   0  0  0  0  0  0  0  0  0  0  0  0
    3.7822   -1.4127   26.7684 C   0  0  0  0  0  0  0  0  0  0  0  0
    4.0314   -2.0317   27.9871 C   0  0  0  0  0  0  0  0  0  0  0  0
    2.9110   -2.0760   28.7800 N   0  0  0  0  0  0  0  0  0  0  0  0
    1.9862   -1.4620   28.0824 C   0  0  0  0  0  0  0  0  0  0  0  0
    2.4672   -1.0175   26.8820 N   0  0  0  0  0  0  0  0  0  0  0  0
    5.1444   -1.2978   22.2097 C   0  0  0  0  0  0  0  0  0  0  0  0
    5.0393   -0.1103   21.9454 O   0  0  0  0  0  0  0  0  0  0  0  0
    5.4283   -2.5768   21.1836 N   0  0  0  0  0  0  0  0  0  0  0  0
    5.5327   -2.6665   19.2805 C   0  0  0  0  0  0  0  0  0  0  0  0
    5.4917   -1.4479   17.6842 C   0  0  0  0  0  0  0  0  0  0  0  0
    4.0877   -2.1236   16.9639 C   0  0  0  0  0  0  0  0  0  0  0  0
    4.1065   -2.7158   15.5977 C   0  0  0  0  0  0  0  0  0  0  0  0
    5.3242   -2.6284   14.7739 C   0  0  0  0  0  0  0  0  0  0  0  0
    6.5901   -1.9758   15.1089 N   0  0  0  0  0  0  0  0  0  0  0  0
    6.7530   -1.2225   16.3853 C   0  0  0  0  0  0  0  0  0  0  0  0
    8.0624   -0.5738   16.4318 N   0  0  0  0  0  0  0  0  0  0  0  0
    8.9111   -0.9693   15.2643 C   0  0  0  0  0  0  0  0  0  0  0  0
   10.2045   -0.2002   15.4691 C   0  0  0  0  0  0  0  0  0  0  0  0
    9.7218    1.1445   15.9609 C   0  0  0  0  0  0  0  0  0  0  0  0
    8.3474    0.8844   16.5951 C   0  0  0  0  0  0  0  0  0  0  0  0
    3.4530   -3.3560   25.0223 H   0  0  0  0  0  0  0  0  0  0  0  0
    3.0119   -3.0380   23.3182 H   0  0  0  0  0  0  0  0  0  0  0  0
    2.5912   -1.9452   24.5302 H   0  0  0  0  0  0  0  0  0  0  0  0
    5.6263   -2.5427   24.2867 H   0  0  0  0  0  0  0  0  0  0  0  0
    4.4667    0.0243   25.4112 H   0  0  0  0  0  0  0  0  0  0  0  0
    5.7132   -1.0635   26.0232 H   0  0  0  0  0  0  0  0  0  0  0  0
    4.9737   -2.4380   28.3324 H   0  0  0  0  0  0  0  0  0  0  0  0
    0.9634   -1.2985   28.3948 H   0  0  0  0  0  0  0  0  0  0  0  0
    1.9329   -0.4938   26.2048 H   0  0  0  0  0  0  0  0  0  0  0  0
    5.5336   -3.3472   21.6778 H   0  0  0  0  0  0  0  0  0  0  0  0
    5.4178   -3.7675   19.4963 H   0  0  0  0  0  0  0  0  0  0  0  0
    4.5919   -2.3869   18.8778 H   0  0  0  0  0  0  0  0  0  0  0  0
    3.1810   -2.2319   17.5475 H   0  0  0  0  0  0  0  0  0  0  0  0
    3.2179   -3.1949   15.1992 H   0  0  0  0  0  0  0  0  0  0  0  0
    5.3011   -3.0033   13.7557 H   0  0  0  0  0  0  0  0  0  0  0  0
    9.1126   -2.0398   15.2078 H   0  0  0  0  0  0  0  0  0  0  0  0
    8.4572   -0.6375   14.3267 H   0  0  0  0  0  0  0  0  0  0  0  0
   10.7932   -0.1214   14.5504 H   0  0  0  0  0  0  0  0  0  0  0  0
   10.8316   -0.6842   16.2232 H   0  0  0  0  0  0  0  0  0  0  0  0
   10.4212    1.6159   16.6536 H   0  0  0  0  0  0  0  0  0  0  0  0
    9.6275    1.8406   15.1219 H   0  0  0  0  0  0  0  0  0  0  0  0
    7.6696    1.5987   16.1313 H   0  0  0  0  0  0  0  0  0  0  0  0
    8.3446    1.2096   17.6124 H   0  0  0  0  0  0  0  0  0  0  0  0
  1  2  1  0
  2  3  1  0
  3  4  1  0
  4  5  2  0
  5  6  1  0
  6  7  2  0
  7  8  1  0
  2  9  1  0
  9 10  2  0
  9 11  1  0
 11 12  1  0
 12 13  1  0
 13 14  2  0
 14 15  1  0
 15 16  2  0
 16 17  1  0
 17 18  2  0
 18 19  1  0
 19 20  1  0
 20 21  1  0
 21 22  1  0
 22 23  1  0
  8  4  1  0
 18 13  1  0
 23 19  1  0
  1 24  1  0
  1 25  1  0
  1 26  1  0
  2 27  1  0
  3 28  1  0
  3 29  1  0
  5 30  1  0
  7 31  1  0
  8 32  1  0
 11 33  1  0
 12 34  1  0
 12 35  1  0
 14 36  1  0
 15 37  1  0
 16 38  1  0
 20 39  1  0
 20 40  1  0
 21 41  1  0
 21 42  1  0
 22 43  1  0
 22 44  1  0
 23 45  1  0
 23 46  1  0
M  END
>  <Energy>  (1278) 
442.36949584494334

>  <compound_id>  (1278) 
6526

>  <target_id>  (1278) 
1

>  <reference_id>  (1278) 
56

>  <inspiration_ids>  (1278) 
[56, 63]

>  <energy_score>  (1278) 
421.0080916423799

>  <distance_score>  (1278) 
12.091515986004714

>  <path>  (1278) 
/opt/xchem-fragalysis-2/maxwin/BulkDock/SCRATCH/511018/C6526-P56/C6526-P56.minimised.mol

>  <scratch_subdir>  (1278) 
/opt/xchem-fragalysis-2/maxwin/BulkDock/SCRATCH/511018/C6526-P56

>  <fragmenstein_runtime>  (1278) 
10.76169228553772

>  <fragmenstein_outcome>  (1278) 
too moved

>  <fragmenstein_mode>  (1278) 
expansion

>  <fragmenstein_error>  (1278) 


$$$$
C6526-P63
     RDKit          3D

 46 48  0  0  0  0  0  0  0  0999 V2000
    2.5779   -3.4858   25.6203 C   0  0  0  0  0  0  0  0  0  0  0  0
    3.5525   -2.3731   25.8598 C   0  0  0  0  0  0  0  0  0  0  0  0
    4.1148   -2.4589   27.3568 C   0  0  0  0  0  0  0  0  0  0  0  0
    3.2248   -1.9365   28.4558 C   0  0  0  0  0  0  0  0  0  0  0  0
    2.5877   -2.5464   29.5216 C   0  0  0  0  0  0  0  0  0  0  0  0
    1.9590   -1.6213   30.3167 N   0  0  0  0  0  0  0  0  0  0  0  0
    2.2069   -0.4615   29.7505 C   0  0  0  0  0  0  0  0  0  0  0  0
    2.9732   -0.5980   28.6270 N   0  0  0  0  0  0  0  0  0  0  0  0
    4.3383   -1.3402   24.9249 C   0  0  0  0  0  0  0  0  0  0  0  0
    4.5384   -0.2919   25.5429 O   0  0  0  0  0  0  0  0  0  0  0  0
    4.6836   -1.6887   23.2661 N   0  0  0  0  0  0  0  0  0  0  0  0
    5.3449   -0.5443   21.8402 C   0  0  0  0  0  0  0  0  0  0  0  0
    6.6889   -0.2257   20.3355 C   0  0  0  0  0  0  0  0  0  0  0  0
    7.8336    0.1405   20.5907 C   0  0  0  0  0  0  0  0  0  0  0  0
    8.8172   -0.9075   19.8956 C   0  0  0  0  0  0  0  0  0  0  0  0
    9.2221   -2.9117   20.0566 C   0  0  0  0  0  0  0  0  0  0  0  0
    8.3562   -1.5755   19.3276 N   0  0  0  0  0  0  0  0  0  0  0  0
    7.1017   -0.5562   18.9452 C   0  0  0  0  0  0  0  0  0  0  0  0
    8.0914    0.1774   17.7395 N   0  0  0  0  0  0  0  0  0  0  0  0
    8.1855    1.6603   17.2842 C   0  0  0  0  0  0  0  0  0  0  0  0
    9.4270    1.7300   16.4135 C   0  0  0  0  0  0  0  0  0  0  0  0
    9.4720    0.3566   15.7701 C   0  0  0  0  0  0  0  0  0  0  0  0
    8.3476   -0.4720   16.4124 C   0  0  0  0  0  0  0  0  0  0  0  0
    2.1001   -3.3726   24.6439 H   0  0  0  0  0  0  0  0  0  0  0  0
    1.7590   -3.4616   26.3525 H   0  0  0  0  0  0  0  0  0  0  0  0
    3.0558   -4.4560   25.7698 H   0  0  0  0  0  0  0  0  0  0  0  0
    2.7441   -1.6230   26.0112 H   0  0  0  0  0  0  0  0  0  0  0  0
    5.0737   -1.9301   27.4255 H   0  0  0  0  0  0  0  0  0  0  0  0
    4.3062   -3.5092   27.6068 H   0  0  0  0  0  0  0  0  0  0  0  0
    2.5618   -3.6005   29.7663 H   0  0  0  0  0  0  0  0  0  0  0  0
    1.8693    0.5017   30.1082 H   0  0  0  0  0  0  0  0  0  0  0  0
    3.3196    0.1500   28.0397 H   0  0  0  0  0  0  0  0  0  0  0  0
    4.3388   -2.5714   23.0425 H   0  0  0  0  0  0  0  0  0  0  0  0
    4.4774    0.0317   21.6084 H   0  0  0  0  0  0  0  0  0  0  0  0
    5.4074    0.4227   22.3288 H   0  0  0  0  0  0  0  0  0  0  0  0
    7.9991    1.0293   21.1969 H   0  0  0  0  0  0  0  0  0  0  0  0
    9.4954   -0.4278   20.5193 H   0  0  0  0  0  0  0  0  0  0  0  0
   10.2694   -3.0292   20.5629 H   0  0  0  0  0  0  0  0  0  0  0  0
    7.4322    1.9593   16.5370 H   0  0  0  0  0  0  0  0  0  0  0  0
    8.0982    2.3965   18.0584 H   0  0  0  0  0  0  0  0  0  0  0  0
    9.3491    2.5259   15.6650 H   0  0  0  0  0  0  0  0  0  0  0  0
   10.3308    1.9436   16.9821 H   0  0  0  0  0  0  0  0  0  0  0  0
   10.4453   -0.1041   15.9797 H   0  0  0  0  0  0  0  0  0  0  0  0
    9.3743    0.3829   14.6826 H   0  0  0  0  0  0  0  0  0  0  0  0
    7.4292   -0.4937   15.8579 H   0  0  0  0  0  0  0  0  0  0  0  0
    8.7312   -1.4792   16.3794 H   0  0  0  0  0  0  0  0  0  0  0  0
  1  2  1  0
  2  3  1  0
  3  4  1  0
  4  5  2  0
  5  6  1  0
  6  7  2  0
  7  8  1  0
  2  9  1  0
  9 10  2  0
  9 11  1  0
 11 12  1  0
 12 13  1  0
 13 14  2  0
 14 15  1  0
 15 16  2  0
 16 17  1  0
 17 18  2  0
 18 19  1  0
 19 20  1  0
 20 21  1  0
 21 22  1  0
 22 23  1  0
  8  4  1  0
 18 13  1  0
 23 19  1  0
  1 24  1  0
  1 25  1  0
  1 26  1  0
  2 27  1  0
  3 28  1  0
  3 29  1  0
  5 30  1  0
  7 31  1  0
  8 32  1  0
 11 33  1  0
 12 34  1  0
 12 35  1  0
 14 36  1  0
 15 37  1  0
 16 38  1  0
 20 39  1  0
 20 40  1  0
 21 41  1  0
 21 42  1  0
 22 43  1  0
 22 44  1  0
 23 45  1  0
 23 46  1  0
M  END
>  <Energy>  (1279) 
1148.0576752508589

>  <compound_id>  (1279) 
6526

>  <target_id>  (1279) 
1

>  <reference_id>  (1279) 
63

>  <inspiration_ids>  (1279) 
[56, 63]

>  <energy_score>  (1279) 
1126.6962710482953

>  <distance_score>  (1279) 
10.360677850840267

>  <path>  (1279) 
/opt/xchem-fragalysis-2/maxwin/BulkDock/SCRATCH/511018/C6526-P63/C6526-P63.minimised.mol

>  <scratch_subdir>  (1279) 
/opt/xchem-fragalysis-2/maxwin/BulkDock/SCRATCH/511018/C6526-P63

>  <fragmenstein_runtime>  (1279) 
12.104625701904297

>  <fragmenstein_outcome>  (1279) 
too moved

>  <fragmenstein_mode>  (1279) 
expansion

>  <fragmenstein_error>  (1279) 


$$$$
C6699-P68
     RDKit          3D

 39 42  0  0  0  0  0  0  0  0999 V2000
   -6.9840  -28.2988   25.7153 O   0  0  0  0  0  0  0  0  0  0  0  0
   -7.9383  -28.5353   25.0787 C   0  0  0  0  0  0  0  0  0  0  0  0
   -8.1859  -29.7077   23.4470 C   0  0  0  0  0  0  0  0  0  0  0  0
   -8.8294  -29.4834   22.1375 C   0  0  0  0  0  0  0  0  0  0  0  0
  -10.1940  -30.4761   21.4964 C   0  0  0  0  0  0  0  0  0  0  0  0
  -10.6444  -31.7466   21.9535 C   0  0  0  0  0  0  0  0  0  0  0  0
  -11.7677  -32.8938   21.3721 S   0  0  0  0  0  0  0  0  0  0  0  0
  -11.2456  -33.9945   22.5880 C   0  0  0  0  0  0  0  0  0  0  0  0
  -10.3384  -33.5439   23.4259 N   0  0  0  0  0  0  0  0  0  0  0  0
  -10.0093  -32.2537   23.0591 C   0  0  0  0  0  0  0  0  0  0  0  0
   -9.0008  -31.3288   23.6558 C   0  0  0  0  0  0  0  0  0  0  0  0
   -9.7450  -28.1008   25.2506 N   0  0  0  0  0  0  0  0  0  0  0  0
  -10.3558  -27.2328   26.7913 C   0  0  0  0  0  0  0  0  0  0  0  0
   -9.9069  -25.4812   26.8883 C   0  0  0  0  0  0  0  0  0  0  0  0
  -10.9899  -24.8570   26.2577 N   0  0  0  0  0  0  0  0  0  0  0  0
  -11.1953  -23.6990   26.9324 C   0  0  0  0  0  0  0  0  0  0  0  0
  -12.0216  -22.7969   26.4174 C   0  0  0  0  0  0  0  0  0  0  0  0
  -12.0855  -21.6648   27.1672 C   0  0  0  0  0  0  0  0  0  0  0  0
  -11.7422  -21.5867   28.5087 C   0  0  0  0  0  0  0  0  0  0  0  0
  -10.7634  -22.3207   28.9314 N   0  0  0  0  0  0  0  0  0  0  0  0
  -10.4420  -23.2688   28.0568 C   0  0  0  0  0  0  0  0  0  0  0  0
  -11.9262  -25.9300   26.0968 C   0  0  0  0  0  0  0  0  0  0  0  0
  -10.5720  -27.2772   26.1029 C   0  0  0  0  0  0  0  0  0  0  0  0
   -8.4437  -28.6881   21.6412 H   0  0  0  0  0  0  0  0  0  0  0  0
  -10.7510  -30.1877   20.6010 H   0  0  0  0  0  0  0  0  0  0  0  0
  -11.6565  -34.9933   22.6595 H   0  0  0  0  0  0  0  0  0  0  0  0
   -8.4687  -32.0054   24.3263 H   0  0  0  0  0  0  0  0  0  0  0  0
   -9.6380  -27.7384   27.6039 H   0  0  0  0  0  0  0  0  0  0  0  0
  -11.1390  -27.8225   27.6195 H   0  0  0  0  0  0  0  0  0  0  0  0
   -9.0922  -25.1133   26.2853 H   0  0  0  0  0  0  0  0  0  0  0  0
   -9.7771  -25.3959   27.9606 H   0  0  0  0  0  0  0  0  0  0  0  0
  -12.5098  -22.8701   25.4590 H   0  0  0  0  0  0  0  0  0  0  0  0
  -12.4551  -20.8675   26.6021 H   0  0  0  0  0  0  0  0  0  0  0  0
  -12.1071  -20.8341   29.1933 H   0  0  0  0  0  0  0  0  0  0  0  0
   -9.4735  -23.6830   28.2827 H   0  0  0  0  0  0  0  0  0  0  0  0
  -12.6302  -25.8571   25.2925 H   0  0  0  0  0  0  0  0  0  0  0  0
  -12.6728  -26.2037   26.8462 H   0  0  0  0  0  0  0  0  0  0  0  0
  -11.5922  -27.9791   25.8387 H   0  0  0  0  0  0  0  0  0  0  0  0
  -10.7020  -26.8305   25.0473 H   0  0  0  0  0  0  0  0  0  0  0  0
  1  2  2  0
  2  3  1  0
  3  4  2  0
  4  5  1  0
  5  6  2  0
  6  7  1  0
  7  8  1  0
  8  9  2  0
  9 10  1  0
 10 11  2  0
  2 12  1  0
 12 13  1  0
 13 14  1  0
 14 15  1  0
 15 16  1  0
 16 17  2  0
 17 18  1  0
 18 19  2  0
 19 20  1  0
 20 21  2  0
 15 22  1  0
 22 23  1  0
 11  3  1  0
 23 12  1  0
 10  6  1  0
 21 16  1  0
  4 24  1  0
  5 25  1  0
  8 26  1  0
 11 27  1  0
 13 28  1  0
 13 29  1  0
 14 30  1  0
 14 31  1  0
 17 32  1  0
 18 33  1  0
 19 34  1  0
 21 35  1  0
 22 36  1  0
 22 37  1  0
 23 38  1  0
 23 39  1  0
M  END
>  <Energy>  (1280) 
1191.7321842899714

>  <compound_id>  (1280) 
6699

>  <target_id>  (1280) 
1

>  <reference_id>  (1280) 
68

>  <inspiration_ids>  (1280) 
[68, 82]

>  <energy_score>  (1280) 
1027.1879790203066

>  <distance_score>  (1280) 
4.888516452991558

>  <path>  (1280) 
/opt/xchem-fragalysis-2/maxwin/BulkDock/SCRATCH/511018/C6699-P68/C6699-P68.minimised.mol

>  <scratch_subdir>  (1280) 
/opt/xchem-fragalysis-2/maxwin/BulkDock/SCRATCH/511018/C6699-P68

>  <fragmenstein_runtime>  (1280) 
8.09169626235962

>  <fragmenstein_outcome>  (1280) 
too moved

>  <fragmenstein_mode>  (1280) 
expansion

>  <fragmenstein_error>  (1280) 


$$$$
C6699-P82
     RDKit          3D

 39 42  0  0  0  0  0  0  0  0999 V2000
   -8.6367  -29.5259   25.3517 O   0  0  0  0  0  0  0  0  0  0  0  0
   -9.6459  -29.8593   25.7519 C   0  0  0  0  0  0  0  0  0  0  0  0
   -9.8925  -31.4197   25.8459 C   0  0  0  0  0  0  0  0  0  0  0  0
   -9.1840  -32.1843   24.8271 C   0  0  0  0  0  0  0  0  0  0  0  0
   -9.6240  -33.3805   24.2029 C   0  0  0  0  0  0  0  0  0  0  0  0
  -10.8992  -33.8147   24.5230 C   0  0  0  0  0  0  0  0  0  0  0  0
  -11.7361  -35.1859   23.9146 S   0  0  0  0  0  0  0  0  0  0  0  0
  -13.1021  -34.7250   24.8277 C   0  0  0  0  0  0  0  0  0  0  0  0
  -12.9964  -33.6181   25.5302 N   0  0  0  0  0  0  0  0  0  0  0  0
  -11.7123  -33.1032   25.4109 C   0  0  0  0  0  0  0  0  0  0  0  0
  -11.2013  -31.9420   26.1186 C   0  0  0  0  0  0  0  0  0  0  0  0
  -11.0403  -29.0234   26.1802 N   0  0  0  0  0  0  0  0  0  0  0  0
  -11.5166  -27.7174   26.1175 C   0  0  0  0  0  0  0  0  0  0  0  0
  -12.4387  -27.3353   27.7535 C   0  0  0  0  0  0  0  0  0  0  0  0
  -11.8423  -26.0741   28.1856 N   0  0  0  0  0  0  0  0  0  0  0  0
  -11.6194  -25.6638   29.4955 C   0  0  0  0  0  0  0  0  0  0  0  0
  -12.0383  -24.3860   29.8693 C   0  0  0  0  0  0  0  0  0  0  0  0
  -11.8686  -23.9051   31.1668 C   0  0  0  0  0  0  0  0  0  0  0  0
  -11.1904  -24.6976   32.0647 C   0  0  0  0  0  0  0  0  0  0  0  0
  -10.6560  -25.8859   31.7332 N   0  0  0  0  0  0  0  0  0  0  0  0
  -10.8861  -26.3345   30.4695 C   0  0  0  0  0  0  0  0  0  0  0  0
  -10.6095  -26.0852   27.4736 C   0  0  0  0  0  0  0  0  0  0  0  0
  -11.0361  -27.1208   26.1858 C   0  0  0  0  0  0  0  0  0  0  0  0
   -8.3778  -31.7019   24.2644 H   0  0  0  0  0  0  0  0  0  0  0  0
   -9.0246  -33.8525   23.4289 H   0  0  0  0  0  0  0  0  0  0  0  0
  -14.0122  -35.3107   24.8144 H   0  0  0  0  0  0  0  0  0  0  0  0
  -11.8983  -31.3796   26.7351 H   0  0  0  0  0  0  0  0  0  0  0  0
  -12.1952  -27.5933   24.9907 H   0  0  0  0  0  0  0  0  0  0  0  0
  -12.5463  -28.3416   26.0863 H   0  0  0  0  0  0  0  0  0  0  0  0
  -12.2701  -28.1851   28.4230 H   0  0  0  0  0  0  0  0  0  0  0  0
  -13.4865  -27.1994   27.4668 H   0  0  0  0  0  0  0  0  0  0  0  0
  -12.5224  -23.7512   29.1363 H   0  0  0  0  0  0  0  0  0  0  0  0
  -12.2640  -22.9395   31.4552 H   0  0  0  0  0  0  0  0  0  0  0  0
  -11.0493  -24.3880   33.0938 H   0  0  0  0  0  0  0  0  0  0  0  0
  -10.4333  -27.2972   30.2735 H   0  0  0  0  0  0  0  0  0  0  0  0
   -9.7329  -26.4554   28.0131 H   0  0  0  0  0  0  0  0  0  0  0  0
  -10.4044  -25.0905   27.0612 H   0  0  0  0  0  0  0  0  0  0  0  0
   -9.8255  -27.2114   25.9961 H   0  0  0  0  0  0  0  0  0  0  0  0
  -10.9829  -26.3691   25.1541 H   0  0  0  0  0  0  0  0  0  0  0  0
  1  2  2  0
  2  3  1  0
  3  4  2  0
  4  5  1  0
  5  6  2  0
  6  7  1  0
  7  8  1  0
  8  9  2  0
  9 10  1  0
 10 11  2  0
  2 12  1  0
 12 13  1  0
 13 14  1  0
 14 15  1  0
 15 16  1  0
 16 17  2  0
 17 18  1  0
 18 19  2  0
 19 20  1  0
 20 21  2  0
 15 22  1  0
 22 23  1  0
 11  3  1  0
 23 12  1  0
 10  6  1  0
 21 16  1  0
  4 24  1  0
  5 25  1  0
  8 26  1  0
 11 27  1  0
 13 28  1  0
 13 29  1  0
 14 30  1  0
 14 31  1  0
 17 32  1  0
 18 33  1  0
 19 34  1  0
 21 35  1  0
 22 36  1  0
 22 37  1  0
 23 38  1  0
 23 39  1  0
M  END
>  <Energy>  (1281) 
876.66193163899527

>  <compound_id>  (1281) 
6699

>  <target_id>  (1281) 
1

>  <reference_id>  (1281) 
82

>  <inspiration_ids>  (1281) 
[68, 82]

>  <energy_score>  (1281) 
712.1177263693369

>  <distance_score>  (1281) 
3.5652788540419262

>  <path>  (1281) 
/opt/xchem-fragalysis-2/maxwin/BulkDock/SCRATCH/511018/C6699-P82/C6699-P82.minimised.mol

>  <scratch_subdir>  (1281) 
/opt/xchem-fragalysis-2/maxwin/BulkDock/SCRATCH/511018/C6699-P82

>  <fragmenstein_runtime>  (1281) 
4.386024713516235

>  <fragmenstein_outcome>  (1281) 
too moved

>  <fragmenstein_mode>  (1281) 
expansion

>  <fragmenstein_error>  (1281) 


$$$$
C6700-P68
     RDKit          3D

 39 42  0  0  0  0  0  0  0  0999 V2000
  -12.9655  -31.7811   26.1465 O   0  0  0  0  0  0  0  0  0  0  0  0
  -11.7917  -31.6835   26.0883 C   0  0  0  0  0  0  0  0  0  0  0  0
  -11.1648  -32.8635   24.9774 C   0  0  0  0  0  0  0  0  0  0  0  0
  -10.5439  -33.9540   25.4117 N   0  0  0  0  0  0  0  0  0  0  0  0
  -10.2094  -34.7743   24.3533 C   0  0  0  0  0  0  0  0  0  0  0  0
   -9.3852  -35.9134   24.4228 C   0  0  0  0  0  0  0  0  0  0  0  0
   -9.1196  -36.6446   23.2625 C   0  0  0  0  0  0  0  0  0  0  0  0
   -9.6773  -36.2645   22.0455 C   0  0  0  0  0  0  0  0  0  0  0  0
  -10.5179  -35.1517   21.9564 C   0  0  0  0  0  0  0  0  0  0  0  0
  -10.7684  -34.4194   23.1270 C   0  0  0  0  0  0  0  0  0  0  0  0
  -11.7757  -33.0421   23.3530 S   0  0  0  0  0  0  0  0  0  0  0  0
  -10.6100  -30.6280   27.0674 N   0  0  0  0  0  0  0  0  0  0  0  0
  -10.0032  -31.7255   28.5626 C   0  0  0  0  0  0  0  0  0  0  0  0
  -10.6246  -32.0301   30.5700 C   0  0  0  0  0  0  0  0  0  0  0  0
  -12.2066  -31.0008   31.2432 N   0  0  0  0  0  0  0  0  0  0  0  0
  -12.1264  -29.1932   30.4616 C   0  0  0  0  0  0  0  0  0  0  0  0
  -11.2575  -29.0502   28.5198 C   0  0  0  0  0  0  0  0  0  0  0  0
  -11.0559  -28.5782   30.7176 C   0  0  0  0  0  0  0  0  0  0  0  0
  -11.6641  -27.6808   31.8987 C   0  0  0  0  0  0  0  0  0  0  0  0
  -12.4713  -27.9112   33.2191 C   0  0  0  0  0  0  0  0  0  0  0  0
  -12.4793  -29.0705   33.8688 C   0  0  0  0  0  0  0  0  0  0  0  0
  -11.5302  -29.8731   33.4969 N   0  0  0  0  0  0  0  0  0  0  0  0
  -10.8901  -29.5530   32.2112 C   0  0  0  0  0  0  0  0  0  0  0  0
   -8.9496  -36.2054   25.3729 H   0  0  0  0  0  0  0  0  0  0  0  0
   -8.4700  -37.5155   23.3153 H   0  0  0  0  0  0  0  0  0  0  0  0
   -9.4613  -36.8445   21.1505 H   0  0  0  0  0  0  0  0  0  0  0  0
  -10.9621  -34.8628   21.0085 H   0  0  0  0  0  0  0  0  0  0  0  0
   -9.7147  -32.7552   28.2731 H   0  0  0  0  0  0  0  0  0  0  0  0
   -8.9895  -31.4289   28.4494 H   0  0  0  0  0  0  0  0  0  0  0  0
   -9.7590  -31.8096   31.2191 H   0  0  0  0  0  0  0  0  0  0  0  0
  -10.9183  -32.9772   31.0266 H   0  0  0  0  0  0  0  0  0  0  0  0
  -13.0280  -31.5417   30.9749 H   0  0  0  0  0  0  0  0  0  0  0  0
  -13.1111  -29.2167   31.0979 H   0  0  0  0  0  0  0  0  0  0  0  0
  -12.8770  -28.4234   30.1534 H   0  0  0  0  0  0  0  0  0  0  0  0
  -10.7089  -28.1280   28.2029 H   0  0  0  0  0  0  0  0  0  0  0  0
  -10.8737  -27.1061   32.3860 H   0  0  0  0  0  0  0  0  0  0  0  0
  -13.1451  -27.1515   33.5827 H   0  0  0  0  0  0  0  0  0  0  0  0
  -13.0908  -29.2605   34.7254 H   0  0  0  0  0  0  0  0  0  0  0  0
  -10.1673  -30.3925   32.2786 H   0  0  0  0  0  0  0  0  0  0  0  0
  1  2  2  0
  2  3  1  0
  3  4  2  0
  4  5  1  0
  5  6  2  0
  6  7  1  0
  7  8  2  0
  8  9  1  0
  9 10  2  0
 10 11  1  0
  2 12  1  0
 12 13  1  0
 13 14  1  0
 14 15  1  0
 15 16  1  0
 16 17  1  0
 17 18  1  0
 18 19  2  0
 19 20  1  0
 20 21  2  0
 21 22  1  0
 22 23  2  0
 11  3  1  0
 17 12  1  0
 23 18  1  0
 10  5  1  0
  6 24  1  0
  7 25  1  0
  8 26  1  0
  9 27  1  0
 13 28  1  0
 13 29  1  0
 14 30  1  0
 14 31  1  0
 15 32  1  0
 16 33  1  0
 16 34  1  0
 17 35  1  0
 19 36  1  0
 20 37  1  0
 21 38  1  0
 23 39  1  0
M  END
>  <Energy>  (1282) 
1611.1684996726894

>  <compound_id>  (1282) 
6700

>  <target_id>  (1282) 
1

>  <reference_id>  (1282) 
68

>  <inspiration_ids>  (1282) 
[68, 82]

>  <energy_score>  (1282) 
1384.6363722259318

>  <distance_score>  (1282) 
4.211221983754225

>  <path>  (1282) 
/opt/xchem-fragalysis-2/maxwin/BulkDock/SCRATCH/511018/C6700-P68/C6700-P68.minimised.mol

>  <scratch_subdir>  (1282) 
/opt/xchem-fragalysis-2/maxwin/BulkDock/SCRATCH/511018/C6700-P68

>  <fragmenstein_runtime>  (1282) 
7.404151439666748

>  <fragmenstein_outcome>  (1282) 
too moved

>  <fragmenstein_mode>  (1282) 
expansion

>  <fragmenstein_error>  (1282) 


$$$$
C6700-P82
     RDKit          3D

 39 42  0  0  0  0  0  0  0  0999 V2000
   -8.5322  -28.3335   26.0300 O   0  0  0  0  0  0  0  0  0  0  0  0
   -9.4478  -28.8723   25.4982 C   0  0  0  0  0  0  0  0  0  0  0  0
   -8.9696  -30.3076   24.8892 C   0  0  0  0  0  0  0  0  0  0  0  0
   -9.4104  -31.5424   25.2507 N   0  0  0  0  0  0  0  0  0  0  0  0
   -9.1305  -32.5643   24.2517 C   0  0  0  0  0  0  0  0  0  0  0  0
   -9.6659  -33.8818   24.2161 C   0  0  0  0  0  0  0  0  0  0  0  0
   -9.3378  -34.7492   23.1710 C   0  0  0  0  0  0  0  0  0  0  0  0
   -8.5162  -34.3146   22.1392 C   0  0  0  0  0  0  0  0  0  0  0  0
   -8.0364  -33.0012   22.1087 C   0  0  0  0  0  0  0  0  0  0  0  0
   -8.3814  -32.1313   23.1577 C   0  0  0  0  0  0  0  0  0  0  0  0
   -8.1097  -30.4267   23.2741 S   0  0  0  0  0  0  0  0  0  0  0  0
  -10.8789  -28.3705   25.3400 N   0  0  0  0  0  0  0  0  0  0  0  0
  -11.0270  -27.5733   24.0078 C   0  0  0  0  0  0  0  0  0  0  0  0
  -12.3839  -26.9929   23.4920 C   0  0  0  0  0  0  0  0  0  0  0  0
  -13.5200  -27.4292   24.2858 N   0  0  0  0  0  0  0  0  0  0  0  0
  -13.1537  -27.1886   25.6821 C   0  0  0  0  0  0  0  0  0  0  0  0
  -11.5911  -27.0844   25.9142 C   0  0  0  0  0  0  0  0  0  0  0  0
  -11.4322  -26.7361   27.3807 C   0  0  0  0  0  0  0  0  0  0  0  0
  -10.9872  -25.4624   27.7781 C   0  0  0  0  0  0  0  0  0  0  0  0
  -10.9269  -25.1266   29.1208 C   0  0  0  0  0  0  0  0  0  0  0  0
  -11.2791  -26.0879   30.0345 C   0  0  0  0  0  0  0  0  0  0  0  0
  -11.7465  -27.3072   29.6854 N   0  0  0  0  0  0  0  0  0  0  0  0
  -11.8497  -27.5859   28.3761 C   0  0  0  0  0  0  0  0  0  0  0  0
  -10.3308  -34.2166   25.0044 H   0  0  0  0  0  0  0  0  0  0  0  0
   -9.7290  -35.7626   23.1645 H   0  0  0  0  0  0  0  0  0  0  0  0
   -8.2587  -34.9888   21.3259 H   0  0  0  0  0  0  0  0  0  0  0  0
   -7.4438  -32.6395   21.2725 H   0  0  0  0  0  0  0  0  0  0  0  0
  -10.6019  -28.1957   23.2387 H   0  0  0  0  0  0  0  0  0  0  0  0
  -10.3053  -26.7474   23.9870 H   0  0  0  0  0  0  0  0  0  0  0  0
  -12.3281  -25.8947   23.5311 H   0  0  0  0  0  0  0  0  0  0  0  0
  -12.5303  -27.1997   22.4331 H   0  0  0  0  0  0  0  0  0  0  0  0
  -14.3504  -26.8922   24.0401 H   0  0  0  0  0  0  0  0  0  0  0  0
  -13.6309  -26.2583   26.0189 H   0  0  0  0  0  0  0  0  0  0  0  0
  -13.5859  -28.0027   26.2749 H   0  0  0  0  0  0  0  0  0  0  0  0
  -11.2070  -26.1465   25.4830 H   0  0  0  0  0  0  0  0  0  0  0  0
  -10.7032  -24.7113   27.0446 H   0  0  0  0  0  0  0  0  0  0  0  0
  -10.6289  -24.1422   29.4461 H   0  0  0  0  0  0  0  0  0  0  0  0
  -11.2225  -25.8906   31.1007 H   0  0  0  0  0  0  0  0  0  0  0  0
  -12.2511  -28.5687   28.1426 H   0  0  0  0  0  0  0  0  0  0  0  0
  1  2  2  0
  2  3  1  0
  3  4  2  0
  4  5  1  0
  5  6  2  0
  6  7  1  0
  7  8  2  0
  8  9  1  0
  9 10  2  0
 10 11  1  0
  2 12  1  0
 12 13  1  0
 13 14  1  0
 14 15  1  0
 15 16  1  0
 16 17  1  0
 17 18  1  0
 18 19  2  0
 19 20  1  0
 20 21  2  0
 21 22  1  0
 22 23  2  0
 11  3  1  0
 17 12  1  0
 23 18  1  0
 10  5  1  0
  6 24  1  0
  7 25  1  0
  8 26  1  0
  9 27  1  0
 13 28  1  0
 13 29  1  0
 14 30  1  0
 14 31  1  0
 15 32  1  0
 16 33  1  0
 16 34  1  0
 17 35  1  0
 19 36  1  0
 20 37  1  0
 21 38  1  0
 23 39  1  0
M  END
>  <Energy>  (1283) 
251.30648885245395

>  <compound_id>  (1283) 
6700

>  <target_id>  (1283) 
1

>  <reference_id>  (1283) 
82

>  <inspiration_ids>  (1283) 
[68, 82]

>  <energy_score>  (1283) 
24.774361405703758

>  <distance_score>  (1283) 
4.373444840000225

>  <path>  (1283) 
/opt/xchem-fragalysis-2/maxwin/BulkDock/SCRATCH/511018/C6700-P82/C6700-P82.minimised.mol

>  <scratch_subdir>  (1283) 
/opt/xchem-fragalysis-2/maxwin/BulkDock/SCRATCH/511018/C6700-P82

>  <fragmenstein_runtime>  (1283) 
5.373508930206299

>  <fragmenstein_outcome>  (1283) 
too moved

>  <fragmenstein_mode>  (1283) 
expansion

>  <fragmenstein_error>  (1283) 


$$$$
C6701-P68
     RDKit          3D

 39 42  0  0  0  0  0  0  0  0999 V2000
  -14.5828  -30.2065   26.8072 O   0  0  0  0  0  0  0  0  0  0  0  0
  -13.6131  -30.1823   26.1829 C   0  0  0  0  0  0  0  0  0  0  0  0
  -13.2593  -31.7884   25.6328 C   0  0  0  0  0  0  0  0  0  0  0  0
  -14.4914  -32.4438   25.3235 C   0  0  0  0  0  0  0  0  0  0  0  0
  -14.6273  -33.7490   24.7624 C   0  0  0  0  0  0  0  0  0  0  0  0
  -13.4865  -34.5076   24.4647 C   0  0  0  0  0  0  0  0  0  0  0  0
  -13.4114  -35.7660   23.8907 N   0  0  0  0  0  0  0  0  0  0  0  0
  -12.1517  -36.1295   23.7774 C   0  0  0  0  0  0  0  0  0  0  0  0
  -10.9901  -35.0167   24.3608 S   0  0  0  0  0  0  0  0  0  0  0  0
  -12.2717  -33.9444   24.8034 C   0  0  0  0  0  0  0  0  0  0  0  0
  -12.2029  -32.6690   25.4269 C   0  0  0  0  0  0  0  0  0  0  0  0
  -12.4275  -28.7410   25.7384 N   0  0  0  0  0  0  0  0  0  0  0  0
  -12.2962  -27.4563   26.0763 C   0  0  0  0  0  0  0  0  0  0  0  0
  -10.5770  -27.0904   26.1525 C   0  0  0  0  0  0  0  0  0  0  0  0
  -10.6060  -25.8337   25.5505 N   0  0  0  0  0  0  0  0  0  0  0  0
  -11.8264  -25.3200   26.0976 C   0  0  0  0  0  0  0  0  0  0  0  0
  -11.3896  -24.0440   26.7428 C   0  0  0  0  0  0  0  0  0  0  0  0
  -11.9985  -22.8516   26.4944 C   0  0  0  0  0  0  0  0  0  0  0  0
  -11.8275  -21.8744   27.4593 C   0  0  0  0  0  0  0  0  0  0  0  0
  -11.0214  -22.0464   28.5328 C   0  0  0  0  0  0  0  0  0  0  0  0
  -10.1283  -23.0146   28.5038 N   0  0  0  0  0  0  0  0  0  0  0  0
  -10.3047  -23.9784   27.6064 C   0  0  0  0  0  0  0  0  0  0  0  0
  -12.8712  -26.8452   26.2085 C   0  0  0  0  0  0  0  0  0  0  0  0
  -15.4309  -31.9092   25.4898 H   0  0  0  0  0  0  0  0  0  0  0  0
  -15.6135  -34.1480   24.5425 H   0  0  0  0  0  0  0  0  0  0  0  0
  -11.8616  -37.0785   23.3448 H   0  0  0  0  0  0  0  0  0  0  0  0
  -11.2174  -32.4297   25.7215 H   0  0  0  0  0  0  0  0  0  0  0  0
  -11.8352  -27.5885   25.0160 H   0  0  0  0  0  0  0  0  0  0  0  0
  -11.6931  -27.8389   27.0887 H   0  0  0  0  0  0  0  0  0  0  0  0
  -10.2047  -27.0508   27.1849 H   0  0  0  0  0  0  0  0  0  0  0  0
  -10.0294  -27.8144   25.5625 H   0  0  0  0  0  0  0  0  0  0  0  0
   -9.7657  -25.2731   25.7012 H   0  0  0  0  0  0  0  0  0  0  0  0
  -12.6953  -24.8942   25.5623 H   0  0  0  0  0  0  0  0  0  0  0  0
  -12.7434  -22.7103   25.7189 H   0  0  0  0  0  0  0  0  0  0  0  0
  -12.4551  -21.0316   27.4675 H   0  0  0  0  0  0  0  0  0  0  0  0
  -11.0382  -21.3725   29.3780 H   0  0  0  0  0  0  0  0  0  0  0  0
   -9.6328  -24.8029   27.7428 H   0  0  0  0  0  0  0  0  0  0  0  0
  -13.5638  -26.6975   27.1443 H   0  0  0  0  0  0  0  0  0  0  0  0
  -13.7877  -26.6109   25.4490 H   0  0  0  0  0  0  0  0  0  0  0  0
  1  2  2  0
  2  3  1  0
  3  4  2  0
  4  5  1  0
  5  6  2  0
  6  7  1  0
  7  8  2  0
  8  9  1  0
  9 10  1  0
 10 11  2  0
  2 12  1  0
 12 13  1  0
 13 14  1  0
 14 15  1  0
 15 16  1  0
 16 17  1  0
 17 18  2  0
 18 19  1  0
 19 20  2  0
 20 21  1  0
 21 22  2  0
 16 23  1  0
 11  3  1  0
 23 12  1  0
 10  6  1  0
 22 17  1  0
  4 24  1  0
  5 25  1  0
  8 26  1  0
 11 27  1  0
 13 28  1  0
 13 29  1  0
 14 30  1  0
 14 31  1  0
 15 32  1  0
 16 33  1  0
 18 34  1  0
 19 35  1  0
 20 36  1  0
 22 37  1  0
 23 38  1  0
 23 39  1  0
M  END
>  <Energy>  (1284) 
1038.4343537139334

>  <compound_id>  (1284) 
6701

>  <target_id>  (1284) 
1

>  <reference_id>  (1284) 
68

>  <inspiration_ids>  (1284) 
[68, 82]

>  <energy_score>  (1284) 
838.2984498989412

>  <distance_score>  (1284) 
4.817699829990521

>  <path>  (1284) 
/opt/xchem-fragalysis-2/maxwin/BulkDock/SCRATCH/511018/C6701-P68/C6701-P68.minimised.mol

>  <scratch_subdir>  (1284) 
/opt/xchem-fragalysis-2/maxwin/BulkDock/SCRATCH/511018/C6701-P68

>  <fragmenstein_runtime>  (1284) 
12.51736855506897

>  <fragmenstein_outcome>  (1284) 
too moved

>  <fragmenstein_mode>  (1284) 
expansion

>  <fragmenstein_error>  (1284) 


$$$$
C6701-P82
     RDKit          3D

 39 42  0  0  0  0  0  0  0  0999 V2000
  -11.5400  -30.6851   27.1693 O   0  0  0  0  0  0  0  0  0  0  0  0
  -12.4454  -30.5235   26.4829 C   0  0  0  0  0  0  0  0  0  0  0  0
  -13.1964  -31.7688   26.1241 C   0  0  0  0  0  0  0  0  0  0  0  0
  -14.5492  -32.0211   26.1751 C   0  0  0  0  0  0  0  0  0  0  0  0
  -15.0329  -33.2605   25.6861 C   0  0  0  0  0  0  0  0  0  0  0  0
  -14.1701  -34.2330   25.1056 C   0  0  0  0  0  0  0  0  0  0  0  0
  -14.5138  -35.4756   24.5944 N   0  0  0  0  0  0  0  0  0  0  0  0
  -13.4392  -36.0860   24.1400 C   0  0  0  0  0  0  0  0  0  0  0  0
  -11.9650  -35.2287   24.2683 S   0  0  0  0  0  0  0  0  0  0  0  0
  -12.8170  -33.9348   25.0176 C   0  0  0  0  0  0  0  0  0  0  0  0
  -12.3321  -32.7251   25.5136 C   0  0  0  0  0  0  0  0  0  0  0  0
  -13.0059  -29.2630   25.7448 N   0  0  0  0  0  0  0  0  0  0  0  0
  -12.6200  -28.0271   25.5532 C   0  0  0  0  0  0  0  0  0  0  0  0
  -14.2925  -27.1810   25.6065 C   0  0  0  0  0  0  0  0  0  0  0  0
  -14.3193  -26.5371   26.9354 N   0  0  0  0  0  0  0  0  0  0  0  0
  -12.9359  -26.7839   27.3928 C   0  0  0  0  0  0  0  0  0  0  0  0
  -12.2560  -25.5490   27.9212 C   0  0  0  0  0  0  0  0  0  0  0  0
  -12.1962  -24.3531   27.2001 C   0  0  0  0  0  0  0  0  0  0  0  0
  -11.8125  -23.1841   27.8429 C   0  0  0  0  0  0  0  0  0  0  0  0
  -11.4753  -23.2500   29.1784 C   0  0  0  0  0  0  0  0  0  0  0  0
  -11.3638  -24.3995   29.8685 N   0  0  0  0  0  0  0  0  0  0  0  0
  -11.7734  -25.5165   29.2313 C   0  0  0  0  0  0  0  0  0  0  0  0
  -12.2599  -27.4677   26.0299 C   0  0  0  0  0  0  0  0  0  0  0  0
  -15.2354  -31.2883   26.5882 H   0  0  0  0  0  0  0  0  0  0  0  0
  -16.0958  -33.4837   25.7426 H   0  0  0  0  0  0  0  0  0  0  0  0
  -13.4820  -37.0751   23.7026 H   0  0  0  0  0  0  0  0  0  0  0  0
  -11.2634  -32.5334   25.4543 H   0  0  0  0  0  0  0  0  0  0  0  0
  -11.7466  -28.2284   24.5908 H   0  0  0  0  0  0  0  0  0  0  0  0
  -13.0924  -28.0692   24.4291 H   0  0  0  0  0  0  0  0  0  0  0  0
  -14.3134  -26.4185   24.8146 H   0  0  0  0  0  0  0  0  0  0  0  0
  -15.0902  -27.9227   25.4851 H   0  0  0  0  0  0  0  0  0  0  0  0
  -14.4008  -25.5336   26.7340 H   0  0  0  0  0  0  0  0  0  0  0  0
  -12.9036  -27.5924   28.1296 H   0  0  0  0  0  0  0  0  0  0  0  0
  -12.5301  -24.2891   26.1684 H   0  0  0  0  0  0  0  0  0  0  0  0
  -11.8255  -22.2297   27.3306 H   0  0  0  0  0  0  0  0  0  0  0  0
  -11.2765  -22.3393   29.7319 H   0  0  0  0  0  0  0  0  0  0  0  0
  -11.7464  -26.4069   29.8514 H   0  0  0  0  0  0  0  0  0  0  0  0
  -11.1581  -27.6668   26.5141 H   0  0  0  0  0  0  0  0  0  0  0  0
  -11.9486  -26.4840   25.2371 H   0  0  0  0  0  0  0  0  0  0  0  0
  1  2  2  0
  2  3  1  0
  3  4  2  0
  4  5  1  0
  5  6  2  0
  6  7  1  0
  7  8  2  0
  8  9  1  0
  9 10  1  0
 10 11  2  0
  2 12  1  0
 12 13  1  0
 13 14  1  0
 14 15  1  0
 15 16  1  0
 16 17  1  0
 17 18  2  0
 18 19  1  0
 19 20  2  0
 20 21  1  0
 21 22  2  0
 16 23  1  0
 11  3  1  0
 23 12  1  0
 10  6  1  0
 22 17  1  0
  4 24  1  0
  5 25  1  0
  8 26  1  0
 11 27  1  0
 13 28  1  0
 13 29  1  0
 14 30  1  0
 14 31  1  0
 15 32  1  0
 16 33  1  0
 18 34  1  0
 19 35  1  0
 20 36  1  0
 22 37  1  0
 23 38  1  0
 23 39  1  0
M  END
>  <Energy>  (1285) 
862.59680154006298

>  <compound_id>  (1285) 
6701

>  <target_id>  (1285) 
1

>  <reference_id>  (1285) 
82

>  <inspiration_ids>  (1285) 
[68, 82]

>  <energy_score>  (1285) 
662.4608977250649

>  <distance_score>  (1285) 
4.894702580466793

>  <path>  (1285) 
/opt/xchem-fragalysis-2/maxwin/BulkDock/SCRATCH/511018/C6701-P82/C6701-P82.minimised.mol

>  <scratch_subdir>  (1285) 
/opt/xchem-fragalysis-2/maxwin/BulkDock/SCRATCH/511018/C6701-P82

>  <fragmenstein_runtime>  (1285) 
5.962575435638428

>  <fragmenstein_outcome>  (1285) 
too moved

>  <fragmenstein_mode>  (1285) 
expansion

>  <fragmenstein_error>  (1285) 


$$$$
C6702-P68
     RDKit          3D

 40 43  0  0  0  0  0  0  0  0999 V2000
  -10.8501  -22.4036   28.2041 C   0  0  0  0  0  0  0  0  0  0  0  0
  -11.7984  -21.6134   27.7038 C   0  0  0  0  0  0  0  0  0  0  0  0
  -12.2948  -21.7320   26.4521 N   0  0  0  0  0  0  0  0  0  0  0  0
  -12.2606  -22.9282   25.8296 C   0  0  0  0  0  0  0  0  0  0  0  0
  -11.5527  -23.9877   26.3440 C   0  0  0  0  0  0  0  0  0  0  0  0
  -11.7926  -25.3568   26.0179 N   0  0  0  0  0  0  0  0  0  0  0  0
  -13.1625  -25.8078   26.1118 C   0  0  0  0  0  0  0  0  0  0  0  0
  -13.5027  -27.2165   25.6419 C   0  0  0  0  0  0  0  0  0  0  0  0
  -12.3755  -28.3008   25.6258 N   0  0  0  0  0  0  0  0  0  0  0  0
  -13.0939  -30.1029   26.0556 C   0  0  0  0  0  0  0  0  0  0  0  0
  -13.1361  -31.8535   25.6547 C   0  0  0  0  0  0  0  0  0  0  0  0
  -13.8591  -32.6477   26.4337 N   0  0  0  0  0  0  0  0  0  0  0  0
  -13.8273  -33.9837   26.0175 C   0  0  0  0  0  0  0  0  0  0  0  0
  -14.4482  -35.0719   26.6623 C   0  0  0  0  0  0  0  0  0  0  0  0
  -14.2585  -36.3727   26.1780 C   0  0  0  0  0  0  0  0  0  0  0  0
  -13.4774  -36.6032   25.0506 C   0  0  0  0  0  0  0  0  0  0  0  0
  -12.8817  -35.5411   24.3729 C   0  0  0  0  0  0  0  0  0  0  0  0
  -13.0799  -34.2463   24.8784 C   0  0  0  0  0  0  0  0  0  0  0  0
  -12.5339  -32.7756   24.2478 S   0  0  0  0  0  0  0  0  0  0  0  0
  -11.1668  -27.7529   26.4347 C   0  0  0  0  0  0  0  0  0  0  0  0
  -10.7485  -26.2803   26.3463 C   0  0  0  0  0  0  0  0  0  0  0  0
  -10.9043  -23.6121   27.5372 C   0  0  0  0  0  0  0  0  0  0  0  0
  -10.6062  -22.2975   29.2420 H   0  0  0  0  0  0  0  0  0  0  0  0
  -12.2992  -20.9313   28.3777 H   0  0  0  0  0  0  0  0  0  0  0  0
  -12.8920  -22.9746   24.9525 H   0  0  0  0  0  0  0  0  0  0  0  0
  -13.8368  -25.1149   25.5993 H   0  0  0  0  0  0  0  0  0  0  0  0
  -13.3922  -25.8500   27.1573 H   0  0  0  0  0  0  0  0  0  0  0  0
  -14.3790  -27.5462   26.1985 H   0  0  0  0  0  0  0  0  0  0  0  0
  -13.9682  -27.1249   24.6511 H   0  0  0  0  0  0  0  0  0  0  0  0
  -14.1803  -29.9796   26.2823 H   0  0  0  0  0  0  0  0  0  0  0  0
  -12.5305  -30.3802   26.8505 H   0  0  0  0  0  0  0  0  0  0  0  0
  -15.0484  -34.8939   27.5500 H   0  0  0  0  0  0  0  0  0  0  0  0
  -14.7323  -37.2082   26.6892 H   0  0  0  0  0  0  0  0  0  0  0  0
  -13.3434  -37.6188   24.6832 H   0  0  0  0  0  0  0  0  0  0  0  0
  -12.2896  -35.7112   23.4786 H   0  0  0  0  0  0  0  0  0  0  0  0
  -11.1647  -28.0655   27.4817 H   0  0  0  0  0  0  0  0  0  0  0  0
  -10.2614  -28.2179   26.0758 H   0  0  0  0  0  0  0  0  0  0  0  0
   -9.9901  -26.1538   25.6112 H   0  0  0  0  0  0  0  0  0  0  0  0
  -10.1913  -26.0265   27.2450 H   0  0  0  0  0  0  0  0  0  0  0  0
  -11.8306  -23.8280   28.0927 H   0  0  0  0  0  0  0  0  0  0  0  0
  1  2  2  0
  2  3  1  0
  3  4  2  0
  4  5  1  0
  5  6  1  0
  6  7  1  0
  7  8  1  0
  8  9  1  0
  9 10  1  0
 10 11  1  0
 11 12  2  0
 12 13  1  0
 13 14  2  0
 14 15  1  0
 15 16  2  0
 16 17  1  0
 17 18  2  0
 18 19  1  0
  9 20  1  0
 20 21  1  0
  5 22  2  0
 22  1  1  0
 21  6  1  0
 19 11  1  0
 18 13  1  0
  1 23  1  0
  2 24  1  0
  4 25  1  0
  7 26  1  0
  7 27  1  0
  8 28  1  0
  8 29  1  0
 10 30  1  0
 10 31  1  0
 14 32  1  0
 15 33  1  0
 16 34  1  0
 17 35  1  0
 20 36  1  0
 20 37  1  0
 21 38  1  0
 21 39  1  0
 22 40  1  0
M  END
>  <Energy>  (1286) 
410.75806734176479

>  <compound_id>  (1286) 
6702

>  <target_id>  (1286) 
1

>  <reference_id>  (1286) 
68

>  <inspiration_ids>  (1286) 
[68, 82]

>  <energy_score>  (1286) 
178.445323543084

>  <distance_score>  (1286) 
5.424826177237765

>  <path>  (1286) 
/opt/xchem-fragalysis-2/maxwin/BulkDock/SCRATCH/511018/C6702-P68/C6702-P68.minimised.mol

>  <scratch_subdir>  (1286) 
/opt/xchem-fragalysis-2/maxwin/BulkDock/SCRATCH/511018/C6702-P68

>  <fragmenstein_runtime>  (1286) 
7.994555950164795

>  <fragmenstein_outcome>  (1286) 
too moved

>  <fragmenstein_mode>  (1286) 
expansion

>  <fragmenstein_error>  (1286) 


$$$$
C6702-P82
     RDKit          3D

 40 43  0  0  0  0  0  0  0  0999 V2000
  -11.9614  -24.3148   30.1136 C   0  0  0  0  0  0  0  0  0  0  0  0
  -11.2629  -24.6963   31.2397 C   0  0  0  0  0  0  0  0  0  0  0  0
  -10.6422  -25.8752   31.3185 N   0  0  0  0  0  0  0  0  0  0  0  0
  -10.8085  -26.7212   30.2563 C   0  0  0  0  0  0  0  0  0  0  0  0
  -11.5536  -26.5021   29.0845 C   0  0  0  0  0  0  0  0  0  0  0  0
  -11.7219  -27.4838   28.0936 N   0  0  0  0  0  0  0  0  0  0  0  0
  -12.6838  -28.6084   28.2274 C   0  0  0  0  0  0  0  0  0  0  0  0
  -12.5009  -29.8640   27.3152 C   0  0  0  0  0  0  0  0  0  0  0  0
  -11.4707  -29.8767   26.2958 N   0  0  0  0  0  0  0  0  0  0  0  0
  -10.4363  -31.0695   26.3446 C   0  0  0  0  0  0  0  0  0  0  0  0
  -10.5437  -32.4838   25.2508 C   0  0  0  0  0  0  0  0  0  0  0  0
  -11.2995  -33.5591   25.4032 N   0  0  0  0  0  0  0  0  0  0  0  0
  -10.8716  -34.6141   24.5907 C   0  0  0  0  0  0  0  0  0  0  0  0
  -11.3858  -35.9204   24.6253 C   0  0  0  0  0  0  0  0  0  0  0  0
  -10.9170  -36.8658   23.7148 C   0  0  0  0  0  0  0  0  0  0  0  0
   -9.9475  -36.5281   22.7765 C   0  0  0  0  0  0  0  0  0  0  0  0
   -9.3929  -35.2521   22.7455 C   0  0  0  0  0  0  0  0  0  0  0  0
   -9.8636  -34.3220   23.6797 C   0  0  0  0  0  0  0  0  0  0  0  0
   -9.3298  -32.7268   23.9434 S   0  0  0  0  0  0  0  0  0  0  0  0
  -11.0314  -28.4650   25.8930 C   0  0  0  0  0  0  0  0  0  0  0  0
  -11.5157  -27.1652   26.6828 C   0  0  0  0  0  0  0  0  0  0  0  0
  -12.0810  -25.2126   29.0285 C   0  0  0  0  0  0  0  0  0  0  0  0
  -12.4453  -23.3454   30.0729 H   0  0  0  0  0  0  0  0  0  0  0  0
  -11.1752  -24.0491   32.1048 H   0  0  0  0  0  0  0  0  0  0  0  0
  -10.2875  -27.6503   30.4267 H   0  0  0  0  0  0  0  0  0  0  0  0
  -12.6937  -28.9770   29.2555 H   0  0  0  0  0  0  0  0  0  0  0  0
  -13.6713  -28.2262   27.9534 H   0  0  0  0  0  0  0  0  0  0  0  0
  -13.4538  -30.0062   26.7863 H   0  0  0  0  0  0  0  0  0  0  0  0
  -12.4505  -30.7445   27.9601 H   0  0  0  0  0  0  0  0  0  0  0  0
   -9.4236  -30.6833   26.1891 H   0  0  0  0  0  0  0  0  0  0  0  0
  -10.5465  -31.4577   27.3373 H   0  0  0  0  0  0  0  0  0  0  0  0
  -12.1571  -36.1750   25.3449 H   0  0  0  0  0  0  0  0  0  0  0  0
  -11.3235  -37.8744   23.7319 H   0  0  0  0  0  0  0  0  0  0  0  0
   -9.5984  -37.2774   22.0687 H   0  0  0  0  0  0  0  0  0  0  0  0
   -8.6099  -34.9914   22.0390 H   0  0  0  0  0  0  0  0  0  0  0  0
  -11.4058  -28.2779   24.8792 H   0  0  0  0  0  0  0  0  0  0  0  0
   -9.9418  -28.4427   25.7855 H   0  0  0  0  0  0  0  0  0  0  0  0
  -10.7655  -26.3789   26.5578 H   0  0  0  0  0  0  0  0  0  0  0  0
  -12.4558  -26.8071   26.2444 H   0  0  0  0  0  0  0  0  0  0  0  0
  -12.6565  -24.8988   28.1638 H   0  0  0  0  0  0  0  0  0  0  0  0
  1  2  2  0
  2  3  1  0
  3  4  2  0
  4  5  1  0
  5  6  1  0
  6  7  1  0
  7  8  1  0
  8  9  1  0
  9 10  1  0
 10 11  1  0
 11 12  2  0
 12 13  1  0
 13 14  2  0
 14 15  1  0
 15 16  2  0
 16 17  1  0
 17 18  2  0
 18 19  1  0
  9 20  1  0
 20 21  1  0
  5 22  2  0
 22  1  1  0
 21  6  1  0
 19 11  1  0
 18 13  1  0
  1 23  1  0
  2 24  1  0
  4 25  1  0
  7 26  1  0
  7 27  1  0
  8 28  1  0
  8 29  1  0
 10 30  1  0
 10 31  1  0
 14 32  1  0
 15 33  1  0
 16 34  1  0
 17 35  1  0
 20 36  1  0
 20 37  1  0
 21 38  1  0
 21 39  1  0
 22 40  1  0
M  END
>  <Energy>  (1287) 
215.64484879101713

>  <compound_id>  (1287) 
6702

>  <target_id>  (1287) 
1

>  <reference_id>  (1287) 
82

>  <inspiration_ids>  (1287) 
[68, 82]

>  <energy_score>  (1287) 
10.63722809087335

>  <distance_score>  (1287) 
3.3311446353303285

>  <path>  (1287) 
/opt/xchem-fragalysis-2/maxwin/BulkDock/SCRATCH/511018/C6702-P82/C6702-P82.minimised.mol

>  <scratch_subdir>  (1287) 
/opt/xchem-fragalysis-2/maxwin/BulkDock/SCRATCH/511018/C6702-P82

>  <fragmenstein_runtime>  (1287) 
2.694836139678955

>  <fragmenstein_outcome>  (1287) 
too moved

>  <fragmenstein_mode>  (1287) 
expansion

>  <fragmenstein_error>  (1287) 


$$$$
C6703-P68
     RDKit          3D

 47 50  0  0  0  0  0  0  0  0999 V2000
  -14.3481  -28.0123   25.9845 O   0  0  0  0  0  0  0  0  0  0  0  0
  -13.2543  -27.7135   25.5698 C   0  0  0  0  0  0  0  0  0  0  0  0
  -12.1270  -28.5822   24.7936 N   0  0  0  0  0  0  0  0  0  0  0  0
  -12.1202  -30.6711   23.9265 C   0  0  0  0  0  0  0  0  0  0  0  0
  -12.6985  -32.1410   24.9646 C   0  0  0  0  0  0  0  0  0  0  0  0
  -12.1414  -33.5166   24.5854 C   0  0  0  0  0  0  0  0  0  0  0  0
  -12.9368  -34.6352   24.8725 C   0  0  0  0  0  0  0  0  0  0  0  0
  -12.4729  -35.9455   24.6791 C   0  0  0  0  0  0  0  0  0  0  0  0
  -11.1700  -36.1697   24.2011 C   0  0  0  0  0  0  0  0  0  0  0  0
  -10.5752  -37.4072   24.0140 N   0  0  0  0  0  0  0  0  0  0  0  0
   -9.3448  -37.2431   23.5864 C   0  0  0  0  0  0  0  0  0  0  0  0
   -8.8463  -35.6290   23.3333 S   0  0  0  0  0  0  0  0  0  0  0  0
  -10.3789  -35.0628   23.8964 C   0  0  0  0  0  0  0  0  0  0  0  0
  -10.8472  -33.7379   24.0746 C   0  0  0  0  0  0  0  0  0  0  0  0
  -12.5740  -26.4386   25.5068 N   0  0  0  0  0  0  0  0  0  0  0  0
  -13.0797  -25.0375   25.8473 C   0  0  0  0  0  0  0  0  0  0  0  0
  -12.5516  -23.6189   25.6833 C   0  0  0  0  0  0  0  0  0  0  0  0
  -11.2881  -23.6707   26.3605 N   0  0  0  0  0  0  0  0  0  0  0  0
  -11.2651  -22.8545   27.4552 C   0  0  0  0  0  0  0  0  0  0  0  0
  -11.9729  -21.7032   27.5929 C   0  0  0  0  0  0  0  0  0  0  0  0
  -12.2676  -21.1436   28.8374 C   0  0  0  0  0  0  0  0  0  0  0  0
  -11.5359  -21.4997   29.8641 C   0  0  0  0  0  0  0  0  0  0  0  0
  -10.6158  -22.3714   29.6392 N   0  0  0  0  0  0  0  0  0  0  0  0
  -10.4214  -22.9815   28.4620 C   0  0  0  0  0  0  0  0  0  0  0  0
  -10.6938  -25.0179   26.5005 C   0  0  0  0  0  0  0  0  0  0  0  0
  -11.8392  -26.2365   26.6029 C   0  0  0  0  0  0  0  0  0  0  0  0
  -11.2699  -28.0046   24.6690 H   0  0  0  0  0  0  0  0  0  0  0  0
  -11.2051  -31.0802   23.1758 H   0  0  0  0  0  0  0  0  0  0  0  0
  -12.6502  -30.9463   22.8286 H   0  0  0  0  0  0  0  0  0  0  0  0
  -12.4662  -31.9040   26.0070 H   0  0  0  0  0  0  0  0  0  0  0  0
  -13.7975  -32.2017   24.8949 H   0  0  0  0  0  0  0  0  0  0  0  0
  -13.9392  -34.5046   25.2799 H   0  0  0  0  0  0  0  0  0  0  0  0
  -13.1053  -36.7955   24.9176 H   0  0  0  0  0  0  0  0  0  0  0  0
   -8.6838  -38.0793   23.3968 H   0  0  0  0  0  0  0  0  0  0  0  0
  -10.1674  -32.9211   23.8642 H   0  0  0  0  0  0  0  0  0  0  0  0
  -13.3899  -25.0863   26.8773 H   0  0  0  0  0  0  0  0  0  0  0  0
  -14.0329  -25.0359   25.3004 H   0  0  0  0  0  0  0  0  0  0  0  0
  -13.3229  -22.9379   26.0022 H   0  0  0  0  0  0  0  0  0  0  0  0
  -12.4724  -23.1465   24.6919 H   0  0  0  0  0  0  0  0  0  0  0  0
  -12.3829  -21.2991   26.6894 H   0  0  0  0  0  0  0  0  0  0  0  0
  -12.8806  -20.2946   29.0283 H   0  0  0  0  0  0  0  0  0  0  0  0
  -11.5984  -21.0482   30.8215 H   0  0  0  0  0  0  0  0  0  0  0  0
   -9.5826  -23.6539   28.3949 H   0  0  0  0  0  0  0  0  0  0  0  0
  -10.0706  -25.1605   25.6249 H   0  0  0  0  0  0  0  0  0  0  0  0
   -9.9852  -25.1318   27.3156 H   0  0  0  0  0  0  0  0  0  0  0  0
  -10.9690  -26.7980   26.1682 H   0  0  0  0  0  0  0  0  0  0  0  0
  -11.7555  -27.1926   27.1366 H   0  0  0  0  0  0  0  0  0  0  0  0
  1  2  2  0
  2  3  1  0
  3  4  1  0
  4  5  1  0
  5  6  1  0
  6  7  2  0
  7  8  1  0
  8  9  2  0
  9 10  1  0
 10 11  2  0
 11 12  1  0
 12 13  1  0
 13 14  2  0
  2 15  1  0
 15 16  1  0
 16 17  1  0
 17 18  1  0
 18 19  1  0
 19 20  2  0
 20 21  1  0
 21 22  2  0
 22 23  1  0
 23 24  2  0
 18 25  1  0
 25 26  1  0
 14  6  1  0
 26 15  1  0
 13  9  1  0
 24 19  1  0
  3 27  1  0
  4 28  1  0
  4 29  1  0
  5 30  1  0
  5 31  1  0
  7 32  1  0
  8 33  1  0
 11 34  1  0
 14 35  1  0
 16 36  1  0
 16 37  1  0
 17 38  1  0
 17 39  1  0
 20 40  1  0
 21 41  1  0
 22 42  1  0
 24 43  1  0
 25 44  1  0
 25 45  1  0
 26 46  1  0
 26 47  1  0
M  END
>  <Energy>  (1288) 
543.59598809948

>  <compound_id>  (1288) 
6703

>  <target_id>  (1288) 
1

>  <reference_id>  (1288) 
68

>  <inspiration_ids>  (1288) 
[68, 82]

>  <energy_score>  (1288) 
422.4430188394783

>  <distance_score>  (1288) 
3.3331502040606207

>  <path>  (1288) 
/opt/xchem-fragalysis-2/maxwin/BulkDock/SCRATCH/511018/C6703-P68/C6703-P68.minimised.mol

>  <scratch_subdir>  (1288) 
/opt/xchem-fragalysis-2/maxwin/BulkDock/SCRATCH/511018/C6703-P68

>  <fragmenstein_runtime>  (1288) 
12.304924964904785

>  <fragmenstein_outcome>  (1288) 
too moved

>  <fragmenstein_mode>  (1288) 
expansion

>  <fragmenstein_error>  (1288) 


$$$$
C6703-P82
     RDKit          3D

 47 50  0  0  0  0  0  0  0  0999 V2000
   -8.8537  -30.3967   26.4249 O   0  0  0  0  0  0  0  0  0  0  0  0
   -9.3733  -29.8379   25.5354 C   0  0  0  0  0  0  0  0  0  0  0  0
   -9.0058  -29.7836   24.0718 N   0  0  0  0  0  0  0  0  0  0  0  0
   -7.9561  -30.4889   23.3136 C   0  0  0  0  0  0  0  0  0  0  0  0
   -8.0117  -32.0307   23.3685 C   0  0  0  0  0  0  0  0  0  0  0  0
   -8.6214  -33.0390   22.4234 C   0  0  0  0  0  0  0  0  0  0  0  0
   -9.7507  -32.8217   21.6548 C   0  0  0  0  0  0  0  0  0  0  0  0
  -10.3887  -33.8903   21.0016 C   0  0  0  0  0  0  0  0  0  0  0  0
   -9.8685  -35.2001   21.0905 C   0  0  0  0  0  0  0  0  0  0  0  0
  -10.4009  -36.3408   20.5129 N   0  0  0  0  0  0  0  0  0  0  0  0
   -9.6342  -37.3716   20.7926 C   0  0  0  0  0  0  0  0  0  0  0  0
   -8.2587  -37.0613   21.7593 S   0  0  0  0  0  0  0  0  0  0  0  0
   -8.7034  -35.4012   21.8232 C   0  0  0  0  0  0  0  0  0  0  0  0
   -8.0778  -34.3436   22.4881 C   0  0  0  0  0  0  0  0  0  0  0  0
  -10.8133  -28.9753   25.5641 N   0  0  0  0  0  0  0  0  0  0  0  0
  -11.8396  -28.8069   26.6895 C   0  0  0  0  0  0  0  0  0  0  0  0
  -13.0521  -27.8540   26.7038 C   0  0  0  0  0  0  0  0  0  0  0  0
  -12.6086  -26.4632   26.6893 N   0  0  0  0  0  0  0  0  0  0  0  0
  -12.1414  -25.8169   27.8530 C   0  0  0  0  0  0  0  0  0  0  0  0
  -12.0920  -24.4188   27.8897 C   0  0  0  0  0  0  0  0  0  0  0  0
  -11.7041  -23.7397   29.0493 C   0  0  0  0  0  0  0  0  0  0  0  0
  -11.3346  -24.4795   30.1563 C   0  0  0  0  0  0  0  0  0  0  0  0
  -11.2731  -25.8187   30.1532 N   0  0  0  0  0  0  0  0  0  0  0  0
  -11.6965  -26.4351   29.0240 C   0  0  0  0  0  0  0  0  0  0  0  0
  -11.6142  -26.4093   25.6244 C   0  0  0  0  0  0  0  0  0  0  0  0
  -10.5454  -27.5166   25.8774 C   0  0  0  0  0  0  0  0  0  0  0  0
   -9.7233  -29.2761   23.5645 H   0  0  0  0  0  0  0  0  0  0  0  0
   -8.0814  -30.1687   22.2790 H   0  0  0  0  0  0  0  0  0  0  0  0
   -6.9882  -30.0912   23.6293 H   0  0  0  0  0  0  0  0  0  0  0  0
   -6.9560  -32.3168   23.4008 H   0  0  0  0  0  0  0  0  0  0  0  0
   -8.5087  -32.2861   24.3075 H   0  0  0  0  0  0  0  0  0  0  0  0
  -10.1502  -31.8183   21.5642 H   0  0  0  0  0  0  0  0  0  0  0  0
  -11.2926  -33.7241   20.4240 H   0  0  0  0  0  0  0  0  0  0  0  0
   -9.8570  -38.3676   20.4330 H   0  0  0  0  0  0  0  0  0  0  0  0
   -7.1865  -34.5373   23.0791 H   0  0  0  0  0  0  0  0  0  0  0  0
  -11.4660  -28.9319   27.6884 H   0  0  0  0  0  0  0  0  0  0  0  0
  -12.3338  -29.7902   26.6045 H   0  0  0  0  0  0  0  0  0  0  0  0
  -13.6944  -28.0673   27.5610 H   0  0  0  0  0  0  0  0  0  0  0  0
  -13.6660  -28.0400   25.8123 H   0  0  0  0  0  0  0  0  0  0  0  0
  -12.4207  -23.8376   27.0309 H   0  0  0  0  0  0  0  0  0  0  0  0
  -11.7326  -22.6571   29.0902 H   0  0  0  0  0  0  0  0  0  0  0  0
  -11.0720  -24.0059   31.0962 H   0  0  0  0  0  0  0  0  0  0  0  0
  -11.6778  -27.5071   29.1336 H   0  0  0  0  0  0  0  0  0  0  0  0
  -12.1173  -26.6264   24.6773 H   0  0  0  0  0  0  0  0  0  0  0  0
  -11.1605  -25.4172   25.5249 H   0  0  0  0  0  0  0  0  0  0  0  0
   -9.8949  -27.3243   25.0560 H   0  0  0  0  0  0  0  0  0  0  0  0
   -9.9121  -27.2315   26.7103 H   0  0  0  0  0  0  0  0  0  0  0  0
  1  2  2  0
  2  3  1  0
  3  4  1  0
  4  5  1  0
  5  6  1  0
  6  7  2  0
  7  8  1  0
  8  9  2  0
  9 10  1  0
 10 11  2  0
 11 12  1  0
 12 13  1  0
 13 14  2  0
  2 15  1  0
 15 16  1  0
 16 17  1  0
 17 18  1  0
 18 19  1  0
 19 20  2  0
 20 21  1  0
 21 22  2  0
 22 23  1  0
 23 24  2  0
 18 25  1  0
 25 26  1  0
 14  6  1  0
 26 15  1  0
 13  9  1  0
 24 19  1  0
  3 27  1  0
  4 28  1  0
  4 29  1  0
  5 30  1  0
  5 31  1  0
  7 32  1  0
  8 33  1  0
 11 34  1  0
 14 35  1  0
 16 36  1  0
 16 37  1  0
 17 38  1  0
 17 39  1  0
 20 40  1  0
 21 41  1  0
 22 42  1  0
 24 43  1  0
 25 44  1  0
 25 45  1  0
 26 46  1  0
 26 47  1  0
M  END
>  <Energy>  (1289) 
168.69791191058604

>  <compound_id>  (1289) 
6703

>  <target_id>  (1289) 
1

>  <reference_id>  (1289) 
82

>  <inspiration_ids>  (1289) 
[68, 82]

>  <energy_score>  (1289) 
47.54494265059037

>  <distance_score>  (1289) 
3.5607053729933873

>  <path>  (1289) 
/opt/xchem-fragalysis-2/maxwin/BulkDock/SCRATCH/511018/C6703-P82/C6703-P82.minimised.mol

>  <scratch_subdir>  (1289) 
/opt/xchem-fragalysis-2/maxwin/BulkDock/SCRATCH/511018/C6703-P82

>  <fragmenstein_runtime>  (1289) 
5.880181550979614

>  <fragmenstein_outcome>  (1289) 
too moved

>  <fragmenstein_mode>  (1289) 
expansion

>  <fragmenstein_error>  (1289) 


$$$$
C6704-P68
     RDKit          3D

 42 44  0  0  0  0  0  0  0  0999 V2000
  -13.2651  -32.6303   18.3559 C   0  0  0  0  0  0  0  0  0  0  0  0
  -13.0501  -33.6754   19.2978 O   0  0  0  0  0  0  0  0  0  0  0  0
  -12.2124  -33.3937   20.3435 C   0  0  0  0  0  0  0  0  0  0  0  0
  -11.8703  -34.4938   21.1222 C   0  0  0  0  0  0  0  0  0  0  0  0
  -11.0379  -34.3529   22.2301 C   0  0  0  0  0  0  0  0  0  0  0  0
  -10.5552  -33.0693   22.5308 C   0  0  0  0  0  0  0  0  0  0  0  0
   -9.6985  -32.5967   23.8969 S   0  0  0  0  0  0  0  0  0  0  0  0
   -9.2685  -30.6971   23.2266 C   0  0  0  0  0  0  0  0  0  0  0  0
   -8.7952  -29.0918   23.8876 N   0  0  0  0  0  0  0  0  0  0  0  0
   -9.8473  -27.8351   24.8674 C   0  0  0  0  0  0  0  0  0  0  0  0
  -11.2363  -28.0309   25.3465 O   0  0  0  0  0  0  0  0  0  0  0  0
   -9.6318  -26.8857   25.3064 N   0  0  0  0  0  0  0  0  0  0  0  0
  -10.2554  -25.7421   26.3437 C   0  0  0  0  0  0  0  0  0  0  0  0
   -9.5487  -24.6111   27.1032 C   0  0  0  0  0  0  0  0  0  0  0  0
  -10.3715  -27.0937   27.4271 C   0  0  0  0  0  0  0  0  0  0  0  0
  -11.7457  -25.2316   26.1582 C   0  0  0  0  0  0  0  0  0  0  0  0
  -12.8843  -26.0156   25.9132 C   0  0  0  0  0  0  0  0  0  0  0  0
  -14.0633  -25.4601   25.4403 C   0  0  0  0  0  0  0  0  0  0  0  0
  -14.1044  -24.0885   25.2727 C   0  0  0  0  0  0  0  0  0  0  0  0
  -13.1056  -23.2784   25.5761 N   0  0  0  0  0  0  0  0  0  0  0  0
  -12.0405  -23.8476   26.1656 C   0  0  0  0  0  0  0  0  0  0  0  0
  -10.2377  -30.7716   22.1642 N   0  0  0  0  0  0  0  0  0  0  0  0
  -10.8381  -31.9724   21.7644 C   0  0  0  0  0  0  0  0  0  0  0  0
  -11.7064  -32.1293   20.6647 C   0  0  0  0  0  0  0  0  0  0  0  0
  -13.8135  -31.7992   18.8112 H   0  0  0  0  0  0  0  0  0  0  0  0
  -12.3233  -32.2894   17.9148 H   0  0  0  0  0  0  0  0  0  0  0  0
  -13.8838  -33.0326   17.5478 H   0  0  0  0  0  0  0  0  0  0  0  0
  -12.2687  -35.4743   20.8710 H   0  0  0  0  0  0  0  0  0  0  0  0
  -10.8039  -35.2048   22.8612 H   0  0  0  0  0  0  0  0  0  0  0  0
   -7.9561  -28.6701   23.6301 H   0  0  0  0  0  0  0  0  0  0  0  0
   -9.0890  -26.0682   25.4599 H   0  0  0  0  0  0  0  0  0  0  0  0
  -10.1063  -23.7344   27.3890 H   0  0  0  0  0  0  0  0  0  0  0  0
   -9.3694  -24.8647   28.1414 H   0  0  0  0  0  0  0  0  0  0  0  0
   -8.7049  -24.2256   26.5658 H   0  0  0  0  0  0  0  0  0  0  0  0
  -10.1219  -26.8376   28.4436 H   0  0  0  0  0  0  0  0  0  0  0  0
   -9.7916  -28.0153   27.3164 H   0  0  0  0  0  0  0  0  0  0  0  0
  -11.3256  -27.5940   27.3446 H   0  0  0  0  0  0  0  0  0  0  0  0
  -12.8825  -27.0855   25.9660 H   0  0  0  0  0  0  0  0  0  0  0  0
  -14.9189  -26.0806   25.1987 H   0  0  0  0  0  0  0  0  0  0  0  0
  -15.0100  -23.5584   24.9809 H   0  0  0  0  0  0  0  0  0  0  0  0
  -11.4253  -23.0564   26.5383 H   0  0  0  0  0  0  0  0  0  0  0  0
  -11.9357  -31.2475   20.0793 H   0  0  0  0  0  0  0  0  0  0  0  0
  1  2  1  0
  2  3  1  0
  3  4  2  0
  4  5  1  0
  5  6  2  0
  6  7  1  0
  7  8  1  0
  8  9  1  0
  9 10  1  0
 10 11  2  0
 10 12  1  0
 12 13  1  0
 13 14  1  0
 13 15  1  0
 13 16  1  0
 16 17  2  0
 17 18  1  0
 18 19  2  0
 19 20  1  0
 20 21  2  0
  8 22  2  0
 22 23  1  0
 23 24  2  0
 24  3  1  0
 23  6  1  0
 21 16  1  0
  1 25  1  0
  1 26  1  0
  1 27  1  0
  4 28  1  0
  5 29  1  0
  9 30  1  0
 12 31  1  0
 14 32  1  0
 14 33  1  0
 14 34  1  0
 15 35  1  0
 15 36  1  0
 15 37  1  0
 17 38  1  0
 18 39  1  0
 19 40  1  0
 21 41  1  0
 24 42  1  0
M  END
>  <Energy>  (1290) 
493.30815196047797

>  <compound_id>  (1290) 
6704

>  <target_id>  (1290) 
1

>  <reference_id>  (1290) 
68

>  <inspiration_ids>  (1290) 
[68, 82]

>  <energy_score>  (1290) 
447.28290071190725

>  <distance_score>  (1290) 
5.589896952600857

>  <path>  (1290) 
/opt/xchem-fragalysis-2/maxwin/BulkDock/SCRATCH/511018/C6704-P68/C6704-P68.minimised.mol

>  <scratch_subdir>  (1290) 
/opt/xchem-fragalysis-2/maxwin/BulkDock/SCRATCH/511018/C6704-P68

>  <fragmenstein_runtime>  (1290) 
14.079999923706055

>  <fragmenstein_outcome>  (1290) 
too moved

>  <fragmenstein_mode>  (1290) 
expansion

>  <fragmenstein_error>  (1290) 


$$$$
C6704-P82
     RDKit          3D

 42 44  0  0  0  0  0  0  0  0999 V2000
  -12.0115  -39.0639   24.4214 C   0  0  0  0  0  0  0  0  0  0  0  0
  -11.0161  -38.4622   23.6026 O   0  0  0  0  0  0  0  0  0  0  0  0
  -10.7820  -37.1253   23.7922 C   0  0  0  0  0  0  0  0  0  0  0  0
   -9.7501  -36.6066   23.0104 C   0  0  0  0  0  0  0  0  0  0  0  0
   -9.3664  -35.2732   23.1024 C   0  0  0  0  0  0  0  0  0  0  0  0
  -10.0778  -34.4730   23.9990 C   0  0  0  0  0  0  0  0  0  0  0  0
   -9.8247  -32.8487   24.3989 S   0  0  0  0  0  0  0  0  0  0  0  0
  -11.1978  -32.8067   25.5201 C   0  0  0  0  0  0  0  0  0  0  0  0
  -11.6100  -31.5932   26.2032 N   0  0  0  0  0  0  0  0  0  0  0  0
  -10.8009  -30.2078   26.4602 C   0  0  0  0  0  0  0  0  0  0  0  0
   -9.7022  -29.9311   26.2200 O   0  0  0  0  0  0  0  0  0  0  0  0
  -12.0026  -29.2930   27.0459 N   0  0  0  0  0  0  0  0  0  0  0  0
  -12.0494  -27.7149   27.3598 C   0  0  0  0  0  0  0  0  0  0  0  0
  -11.2481  -27.0855   26.1741 C   0  0  0  0  0  0  0  0  0  0  0  0
  -13.5377  -27.4636   26.9327 C   0  0  0  0  0  0  0  0  0  0  0  0
  -11.7332  -26.7807   28.6248 C   0  0  0  0  0  0  0  0  0  0  0  0
  -12.0376  -25.3875   28.5832 C   0  0  0  0  0  0  0  0  0  0  0  0
  -11.8153  -24.4873   29.6544 C   0  0  0  0  0  0  0  0  0  0  0  0
  -11.2237  -24.9531   30.7967 C   0  0  0  0  0  0  0  0  0  0  0  0
  -10.8519  -26.2254   30.8941 N   0  0  0  0  0  0  0  0  0  0  0  0
  -11.1426  -27.0687   29.8425 C   0  0  0  0  0  0  0  0  0  0  0  0
  -11.8297  -33.9663   25.5012 N   0  0  0  0  0  0  0  0  0  0  0  0
  -11.1491  -34.9345   24.7463 C   0  0  0  0  0  0  0  0  0  0  0  0
  -11.4898  -36.2955   24.6615 C   0  0  0  0  0  0  0  0  0  0  0  0
  -12.0456  -40.1299   24.1767 H   0  0  0  0  0  0  0  0  0  0  0  0
  -11.7589  -38.9739   25.4832 H   0  0  0  0  0  0  0  0  0  0  0  0
  -13.0002  -38.6427   24.2120 H   0  0  0  0  0  0  0  0  0  0  0  0
   -9.2139  -37.2641   22.3282 H   0  0  0  0  0  0  0  0  0  0  0  0
   -8.5389  -34.8769   22.5204 H   0  0  0  0  0  0  0  0  0  0  0  0
  -12.5271  -31.5304   26.6033 H   0  0  0  0  0  0  0  0  0  0  0  0
  -12.8572  -29.8223   27.0609 H   0  0  0  0  0  0  0  0  0  0  0  0
  -11.4874  -26.0302   26.0044 H   0  0  0  0  0  0  0  0  0  0  0  0
  -11.4479  -27.6047   25.2287 H   0  0  0  0  0  0  0  0  0  0  0  0
  -10.1759  -27.1479   26.3488 H   0  0  0  0  0  0  0  0  0  0  0  0
  -13.8505  -26.4186   26.9671 H   0  0  0  0  0  0  0  0  0  0  0  0
  -13.7105  -27.7960   25.8990 H   0  0  0  0  0  0  0  0  0  0  0  0
  -14.2206  -28.0651   27.5394 H   0  0  0  0  0  0  0  0  0  0  0  0
  -12.4853  -24.9465   27.6938 H   0  0  0  0  0  0  0  0  0  0  0  0
  -12.1151  -23.4491   29.5692 H   0  0  0  0  0  0  0  0  0  0  0  0
  -11.0309  -24.3229   31.6558 H   0  0  0  0  0  0  0  0  0  0  0  0
  -10.9010  -28.0504   30.1646 H   0  0  0  0  0  0  0  0  0  0  0  0
  -12.3180  -36.6469   25.2629 H   0  0  0  0  0  0  0  0  0  0  0  0
  1  2  1  0
  2  3  1  0
  3  4  2  0
  4  5  1  0
  5  6  2  0
  6  7  1  0
  7  8  1  0
  8  9  1  0
  9 10  1  0
 10 11  2  0
 10 12  1  0
 12 13  1  0
 13 14  1  0
 13 15  1  0
 13 16  1  0
 16 17  2  0
 17 18  1  0
 18 19  2  0
 19 20  1  0
 20 21  2  0
  8 22  2  0
 22 23  1  0
 23 24  2  0
 24  3  1  0
 23  6  1  0
 21 16  1  0
  1 25  1  0
  1 26  1  0
  1 27  1  0
  4 28  1  0
  5 29  1  0
  9 30  1  0
 12 31  1  0
 14 32  1  0
 14 33  1  0
 14 34  1  0
 15 35  1  0
 15 36  1  0
 15 37  1  0
 17 38  1  0
 18 39  1  0
 19 40  1  0
 21 41  1  0
 24 42  1  0
M  END
>  <Energy>  (1291) 
44.578969306220735

>  <compound_id>  (1291) 
6704

>  <target_id>  (1291) 
1

>  <reference_id>  (1291) 
82

>  <inspiration_ids>  (1291) 
[68, 82]

>  <energy_score>  (1291) 
-21.583339712813085

>  <distance_score>  (1291) 
3.9048151491004335

>  <path>  (1291) 
/opt/xchem-fragalysis-2/maxwin/BulkDock/SCRATCH/511018/C6704-P82/C6704-P82.minimised.mol

>  <scratch_subdir>  (1291) 
/opt/xchem-fragalysis-2/maxwin/BulkDock/SCRATCH/511018/C6704-P82

>  <fragmenstein_runtime>  (1291) 
3.088076591491699

>  <fragmenstein_outcome>  (1291) 
too moved

>  <fragmenstein_mode>  (1291) 
expansion

>  <fragmenstein_error>  (1291) 


$$$$
C6705-P68
     RDKit          3D

 41 43  0  0  0  0  0  0  0  0999 V2000
  -11.6183  -32.2582   21.7587 C   0  0  0  0  0  0  0  0  0  0  0  0
  -11.0285  -33.2169   22.7525 C   0  0  0  0  0  0  0  0  0  0  0  0
  -11.6339  -34.4790   22.9138 C   0  0  0  0  0  0  0  0  0  0  0  0
  -11.1015  -35.4276   23.7780 C   0  0  0  0  0  0  0  0  0  0  0  0
   -9.9410  -35.1492   24.4960 C   0  0  0  0  0  0  0  0  0  0  0  0
   -9.3474  -33.8862   24.3309 C   0  0  0  0  0  0  0  0  0  0  0  0
   -7.8926  -33.3286   25.0182 S   0  0  0  0  0  0  0  0  0  0  0  0
   -7.7071  -31.2422   24.0665 C   0  0  0  0  0  0  0  0  0  0  0  0
   -8.1718  -29.9583   24.0823 N   0  0  0  0  0  0  0  0  0  0  0  0
   -7.9006  -28.6463   25.3819 C   0  0  0  0  0  0  0  0  0  0  0  0
   -7.1357  -28.6101   26.3854 O   0  0  0  0  0  0  0  0  0  0  0  0
   -9.2307  -27.5694   24.8973 N   0  0  0  0  0  0  0  0  0  0  0  0
   -9.9723  -26.2288   25.7703 C   0  0  0  0  0  0  0  0  0  0  0  0
  -11.4172  -26.7495   25.9314 C   0  0  0  0  0  0  0  0  0  0  0  0
   -9.7912  -24.7598   25.8709 C   0  0  0  0  0  0  0  0  0  0  0  0
  -10.6039  -23.9973   26.8493 C   0  0  0  0  0  0  0  0  0  0  0  0
  -11.6725  -23.2147   26.4921 C   0  0  0  0  0  0  0  0  0  0  0  0
  -11.8807  -22.0602   27.2282 C   0  0  0  0  0  0  0  0  0  0  0  0
  -11.3876  -21.9147   28.4825 C   0  0  0  0  0  0  0  0  0  0  0  0
  -10.4179  -22.7050   28.8581 N   0  0  0  0  0  0  0  0  0  0  0  0
  -10.0234  -23.6989   28.0447 C   0  0  0  0  0  0  0  0  0  0  0  0
   -9.1419  -31.7081   23.5655 N   0  0  0  0  0  0  0  0  0  0  0  0
   -9.8711  -32.9341   23.5186 C   0  0  0  0  0  0  0  0  0  0  0  0
  -12.6173  -31.9505   22.0797 H   0  0  0  0  0  0  0  0  0  0  0  0
  -10.9981  -31.3658   21.6432 H   0  0  0  0  0  0  0  0  0  0  0  0
  -11.6933  -32.7349   20.7758 H   0  0  0  0  0  0  0  0  0  0  0  0
  -12.5251  -34.7275   22.3395 H   0  0  0  0  0  0  0  0  0  0  0  0
  -11.5768  -36.4008   23.8769 H   0  0  0  0  0  0  0  0  0  0  0  0
   -9.4936  -35.8926   25.1493 H   0  0  0  0  0  0  0  0  0  0  0  0
   -8.8145  -29.6264   23.3513 H   0  0  0  0  0  0  0  0  0  0  0  0
   -9.5873  -27.8476   23.9838 H   0  0  0  0  0  0  0  0  0  0  0  0
   -9.8148  -26.4904   26.8148 H   0  0  0  0  0  0  0  0  0  0  0  0
  -12.2063  -25.9985   25.9598 H   0  0  0  0  0  0  0  0  0  0  0  0
  -11.4643  -27.3417   26.8427 H   0  0  0  0  0  0  0  0  0  0  0  0
  -11.6488  -27.5299   25.2310 H   0  0  0  0  0  0  0  0  0  0  0  0
   -8.7684  -24.5150   26.0903 H   0  0  0  0  0  0  0  0  0  0  0  0
   -9.9717  -24.2333   24.9684 H   0  0  0  0  0  0  0  0  0  0  0  0
  -12.2043  -23.2596   25.5558 H   0  0  0  0  0  0  0  0  0  0  0  0
  -12.5035  -21.3214   26.8023 H   0  0  0  0  0  0  0  0  0  0  0  0
  -11.7072  -21.1571   29.1830 H   0  0  0  0  0  0  0  0  0  0  0  0
   -9.1773  -24.2510   28.3870 H   0  0  0  0  0  0  0  0  0  0  0  0
  1  2  1  0
  2  3  2  0
  3  4  1  0
  4  5  2  0
  5  6  1  0
  6  7  1  0
  7  8  1  0
  8  9  1  0
  9 10  1  0
 10 11  2  0
 10 12  1  0
 12 13  1  0
 13 14  1  0
 13 15  1  0
 15 16  1  0
 16 17  2  0
 17 18  1  0
 18 19  2  0
 19 20  1  0
 20 21  2  0
  8 22  2  0
 22 23  1  0
 23  2  1  0
 23  6  2  0
 21 16  1  0
  1 24  1  0
  1 25  1  0
  1 26  1  0
  3 27  1  0
  4 28  1  0
  5 29  1  0
  9 30  1  0
 12 31  1  0
 13 32  1  0
 14 33  1  0
 14 34  1  0
 14 35  1  0
 15 36  1  0
 15 37  1  0
 17 38  1  0
 18 39  1  0
 19 40  1  0
 21 41  1  0
M  END
>  <Energy>  (1292) 
347.07355620182256

>  <compound_id>  (1292) 
6705

>  <target_id>  (1292) 
1

>  <reference_id>  (1292) 
68

>  <inspiration_ids>  (1292) 
[68, 82]

>  <energy_score>  (1292) 
312.58704821431115

>  <distance_score>  (1292) 
4.343525610992739

>  <path>  (1292) 
/opt/xchem-fragalysis-2/maxwin/BulkDock/SCRATCH/511018/C6705-P68/C6705-P68.minimised.mol

>  <scratch_subdir>  (1292) 
/opt/xchem-fragalysis-2/maxwin/BulkDock/SCRATCH/511018/C6705-P68

>  <fragmenstein_runtime>  (1292) 
11.623544454574585

>  <fragmenstein_outcome>  (1292) 
too moved

>  <fragmenstein_mode>  (1292) 
expansion

>  <fragmenstein_error>  (1292) 


$$$$
C6705-P82
     RDKit          3D

 41 43  0  0  0  0  0  0  0  0999 V2000
  -11.0838  -34.8926   25.1809 C   0  0  0  0  0  0  0  0  0  0  0  0
  -10.0799  -34.4359   24.1645 C   0  0  0  0  0  0  0  0  0  0  0  0
   -9.7385  -35.3168   23.1300 C   0  0  0  0  0  0  0  0  0  0  0  0
   -8.8881  -34.9166   22.1093 C   0  0  0  0  0  0  0  0  0  0  0  0
   -8.3411  -33.6321   22.0870 C   0  0  0  0  0  0  0  0  0  0  0  0
   -8.6479  -32.7544   23.1382 C   0  0  0  0  0  0  0  0  0  0  0  0
   -8.2104  -31.0658   23.3174 S   0  0  0  0  0  0  0  0  0  0  0  0
   -9.0230  -30.9789   25.0275 C   0  0  0  0  0  0  0  0  0  0  0  0
   -9.4158  -29.6658   25.5252 N   0  0  0  0  0  0  0  0  0  0  0  0
  -10.8383  -29.1618   26.1815 C   0  0  0  0  0  0  0  0  0  0  0  0
  -11.7938  -29.7689   26.4534 O   0  0  0  0  0  0  0  0  0  0  0  0
  -10.5657  -27.5701   26.2393 N   0  0  0  0  0  0  0  0  0  0  0  0
  -11.4349  -26.4517   26.7530 C   0  0  0  0  0  0  0  0  0  0  0  0
  -11.1329  -25.0130   26.3528 C   0  0  0  0  0  0  0  0  0  0  0  0
  -11.8496  -26.5116   28.2679 C   0  0  0  0  0  0  0  0  0  0  0  0
  -11.3070  -25.7065   29.4422 C   0  0  0  0  0  0  0  0  0  0  0  0
  -11.8731  -24.4775   29.8029 C   0  0  0  0  0  0  0  0  0  0  0  0
  -11.6884  -23.9404   31.0796 C   0  0  0  0  0  0  0  0  0  0  0  0
  -10.8639  -24.6116   31.9542 C   0  0  0  0  0  0  0  0  0  0  0  0
  -10.2042  -25.7317   31.6178 N   0  0  0  0  0  0  0  0  0  0  0  0
  -10.4556  -26.2596   30.3907 C   0  0  0  0  0  0  0  0  0  0  0  0
   -9.6876  -32.1302   25.1651 N   0  0  0  0  0  0  0  0  0  0  0  0
   -9.4770  -33.1427   24.1831 C   0  0  0  0  0  0  0  0  0  0  0  0
  -10.5766  -35.3364   26.0410 H   0  0  0  0  0  0  0  0  0  0  0  0
  -11.7009  -34.0490   25.4994 H   0  0  0  0  0  0  0  0  0  0  0  0
  -11.7648  -35.6390   24.7578 H   0  0  0  0  0  0  0  0  0  0  0  0
  -10.1631  -36.3180   23.0992 H   0  0  0  0  0  0  0  0  0  0  0  0
   -8.6496  -35.6047   21.3011 H   0  0  0  0  0  0  0  0  0  0  0  0
   -7.7016  -33.3061   21.2708 H   0  0  0  0  0  0  0  0  0  0  0  0
   -8.8321  -28.8832   25.3436 H   0  0  0  0  0  0  0  0  0  0  0  0
   -9.6055  -27.3821   26.0135 H   0  0  0  0  0  0  0  0  0  0  0  0
  -12.3683  -26.6997   26.2251 H   0  0  0  0  0  0  0  0  0  0  0  0
  -10.2486  -24.6321   26.8667 H   0  0  0  0  0  0  0  0  0  0  0  0
  -11.9701  -24.3553   26.6130 H   0  0  0  0  0  0  0  0  0  0  0  0
  -10.9894  -24.9259   25.2729 H   0  0  0  0  0  0  0  0  0  0  0  0
  -12.9041  -26.2153   28.2263 H   0  0  0  0  0  0  0  0  0  0  0  0
  -11.8818  -27.5655   28.5718 H   0  0  0  0  0  0  0  0  0  0  0  0
  -12.5386  -23.9664   29.1181 H   0  0  0  0  0  0  0  0  0  0  0  0
  -12.1979  -23.0313   31.3751 H   0  0  0  0  0  0  0  0  0  0  0  0
  -10.7015  -24.2519   32.9621 H   0  0  0  0  0  0  0  0  0  0  0  0
   -9.9743  -27.2170   30.2367 H   0  0  0  0  0  0  0  0  0  0  0  0
  1  2  1  0
  2  3  2  0
  3  4  1  0
  4  5  2  0
  5  6  1  0
  6  7  1  0
  7  8  1  0
  8  9  1  0
  9 10  1  0
 10 11  2  0
 10 12  1  0
 12 13  1  0
 13 14  1  0
 13 15  1  0
 15 16  1  0
 16 17  2  0
 17 18  1  0
 18 19  2  0
 19 20  1  0
 20 21  2  0
  8 22  2  0
 22 23  1  0
 23  2  1  0
 23  6  2  0
 21 16  1  0
  1 24  1  0
  1 25  1  0
  1 26  1  0
  3 27  1  0
  4 28  1  0
  5 29  1  0
  9 30  1  0
 12 31  1  0
 13 32  1  0
 14 33  1  0
 14 34  1  0
 14 35  1  0
 15 36  1  0
 15 37  1  0
 17 38  1  0
 18 39  1  0
 19 40  1  0
 21 41  1  0
M  END
>  <Energy>  (1293) 
46.070783479880781

>  <compound_id>  (1293) 
6705

>  <target_id>  (1293) 
1

>  <reference_id>  (1293) 
82

>  <inspiration_ids>  (1293) 
[68, 82]

>  <energy_score>  (1293) 
-1.5933417346914212

>  <distance_score>  (1293) 
3.1890709308258076

>  <path>  (1293) 
/opt/xchem-fragalysis-2/maxwin/BulkDock/SCRATCH/511018/C6705-P82/C6705-P82.minimised.mol

>  <scratch_subdir>  (1293) 
/opt/xchem-fragalysis-2/maxwin/BulkDock/SCRATCH/511018/C6705-P82

>  <fragmenstein_runtime>  (1293) 
4.189472436904907

>  <fragmenstein_outcome>  (1293) 
too moved

>  <fragmenstein_mode>  (1293) 
expansion

>  <fragmenstein_error>  (1293) 


$$$$
C6706-P68
     RDKit          3D

 41 43  0  0  0  0  0  0  0  0999 V2000
  -12.8762  -33.3086   25.1950 C   0  0  0  0  0  0  0  0  0  0  0  0
  -11.4914  -33.8409   25.0310 C   0  0  0  0  0  0  0  0  0  0  0  0
  -11.1185  -34.5594   23.8728 C   0  0  0  0  0  0  0  0  0  0  0  0
   -9.8562  -35.1773   23.7433 C   0  0  0  0  0  0  0  0  0  0  0  0
   -8.8944  -35.1203   24.7656 C   0  0  0  0  0  0  0  0  0  0  0  0
   -9.2856  -34.3702   25.8587 C   0  0  0  0  0  0  0  0  0  0  0  0
   -8.8180  -33.9244   27.6028 S   0  0  0  0  0  0  0  0  0  0  0  0
   -9.7684  -31.8224   28.1253 C   0  0  0  0  0  0  0  0  0  0  0  0
   -9.9984  -30.0816   27.2607 N   0  0  0  0  0  0  0  0  0  0  0  0
  -10.9137  -28.5628   27.7503 C   0  0  0  0  0  0  0  0  0  0  0  0
  -11.4837  -28.3028   28.7499 O   0  0  0  0  0  0  0  0  0  0  0  0
  -10.9471  -27.5054   26.3339 N   0  0  0  0  0  0  0  0  0  0  0  0
  -11.8844  -25.9639   26.0051 C   0  0  0  0  0  0  0  0  0  0  0  0
  -13.3753  -25.3680   25.2198 C   0  0  0  0  0  0  0  0  0  0  0  0
  -13.1171  -26.6779   26.5911 C   0  0  0  0  0  0  0  0  0  0  0  0
  -11.2469  -24.6107   26.4495 C   0  0  0  0  0  0  0  0  0  0  0  0
  -11.8721  -23.3621   26.3812 C   0  0  0  0  0  0  0  0  0  0  0  0
  -11.6204  -22.3750   27.3299 C   0  0  0  0  0  0  0  0  0  0  0  0
  -10.6988  -22.6264   28.2824 C   0  0  0  0  0  0  0  0  0  0  0  0
   -9.8206  -23.6333   28.1414 N   0  0  0  0  0  0  0  0  0  0  0  0
  -10.1179  -24.5717   27.2111 C   0  0  0  0  0  0  0  0  0  0  0  0
  -10.0497  -33.3453   27.4407 N   0  0  0  0  0  0  0  0  0  0  0  0
  -10.4886  -33.8149   25.9963 C   0  0  0  0  0  0  0  0  0  0  0  0
  -13.5229  -34.0796   25.6250 H   0  0  0  0  0  0  0  0  0  0  0  0
  -12.8900  -32.4348   25.8523 H   0  0  0  0  0  0  0  0  0  0  0  0
  -13.2918  -33.0049   24.2292 H   0  0  0  0  0  0  0  0  0  0  0  0
  -11.8324  -34.6687   23.0567 H   0  0  0  0  0  0  0  0  0  0  0  0
   -9.6308  -35.7399   22.8384 H   0  0  0  0  0  0  0  0  0  0  0  0
   -7.9477  -35.6336   24.6945 H   0  0  0  0  0  0  0  0  0  0  0  0
   -9.5917  -29.9433   26.4286 H   0  0  0  0  0  0  0  0  0  0  0  0
  -10.3319  -27.8783   25.6350 H   0  0  0  0  0  0  0  0  0  0  0  0
  -13.3587  -24.5503   24.5072 H   0  0  0  0  0  0  0  0  0  0  0  0
  -14.0964  -26.1006   24.7974 H   0  0  0  0  0  0  0  0  0  0  0  0
  -13.9176  -24.7579   25.9339 H   0  0  0  0  0  0  0  0  0  0  0  0
  -13.1897  -27.5331   25.9119 H   0  0  0  0  0  0  0  0  0  0  0  0
  -14.1950  -26.4780   26.6115 H   0  0  0  0  0  0  0  0  0  0  0  0
  -13.0592  -26.8358   27.6258 H   0  0  0  0  0  0  0  0  0  0  0  0
  -12.6825  -23.1035   25.7105 H   0  0  0  0  0  0  0  0  0  0  0  0
  -12.2022  -21.4726   27.3654 H   0  0  0  0  0  0  0  0  0  0  0  0
  -10.6321  -21.9639   29.1288 H   0  0  0  0  0  0  0  0  0  0  0  0
   -9.6044  -25.4861   27.3091 H   0  0  0  0  0  0  0  0  0  0  0  0
  1  2  1  0
  2  3  2  0
  3  4  1  0
  4  5  2  0
  5  6  1  0
  6  7  1  0
  7  8  1  0
  8  9  1  0
  9 10  1  0
 10 11  2  0
 10 12  1  0
 12 13  1  0
 13 14  1  0
 13 15  1  0
 13 16  1  0
 16 17  2  0
 17 18  1  0
 18 19  2  0
 19 20  1  0
 20 21  2  0
  8 22  2  0
 22 23  1  0
 23  2  1  0
 23  6  2  0
 21 16  1  0
  1 24  1  0
  1 25  1  0
  1 26  1  0
  3 27  1  0
  4 28  1  0
  5 29  1  0
  9 30  1  0
 12 31  1  0
 14 32  1  0
 14 33  1  0
 14 34  1  0
 15 35  1  0
 15 36  1  0
 15 37  1  0
 17 38  1  0
 18 39  1  0
 19 40  1  0
 21 41  1  0
M  END
>  <Energy>  (1294) 
757.7660641014412

>  <compound_id>  (1294) 
6706

>  <target_id>  (1294) 
1

>  <reference_id>  (1294) 
68

>  <inspiration_ids>  (1294) 
[68, 82]

>  <energy_score>  (1294) 
719.5768527528843

>  <distance_score>  (1294) 
4.586976965721629

>  <path>  (1294) 
/opt/xchem-fragalysis-2/maxwin/BulkDock/SCRATCH/511018/C6706-P68/C6706-P68.minimised.mol

>  <scratch_subdir>  (1294) 
/opt/xchem-fragalysis-2/maxwin/BulkDock/SCRATCH/511018/C6706-P68

>  <fragmenstein_runtime>  (1294) 
9.113328218460083

>  <fragmenstein_outcome>  (1294) 
too moved

>  <fragmenstein_mode>  (1294) 
expansion

>  <fragmenstein_error>  (1294) 


$$$$
C6706-P82
     RDKit          3D

 41 43  0  0  0  0  0  0  0  0999 V2000
  -12.6024  -36.9287   25.4708 C   0  0  0  0  0  0  0  0  0  0  0  0
  -11.4856  -36.3152   24.6760 C   0  0  0  0  0  0  0  0  0  0  0  0
  -10.7615  -37.1180   23.7784 C   0  0  0  0  0  0  0  0  0  0  0  0
   -9.7379  -36.6000   22.9901 C   0  0  0  0  0  0  0  0  0  0  0  0
   -9.3679  -35.2678   23.0943 C   0  0  0  0  0  0  0  0  0  0  0  0
  -10.0842  -34.4788   23.9989 C   0  0  0  0  0  0  0  0  0  0  0  0
   -9.8322  -32.8535   24.3986 S   0  0  0  0  0  0  0  0  0  0  0  0
  -11.2012  -32.8121   25.5193 C   0  0  0  0  0  0  0  0  0  0  0  0
  -11.6135  -31.5989   26.2018 N   0  0  0  0  0  0  0  0  0  0  0  0
  -10.8030  -30.2156   26.4626 C   0  0  0  0  0  0  0  0  0  0  0  0
   -9.7033  -29.9406   26.2261 O   0  0  0  0  0  0  0  0  0  0  0  0
  -12.0049  -29.2993   27.0451 N   0  0  0  0  0  0  0  0  0  0  0  0
  -12.0501  -27.7208   27.3602 C   0  0  0  0  0  0  0  0  0  0  0  0
  -11.2507  -27.0921   26.1723 C   0  0  0  0  0  0  0  0  0  0  0  0
  -13.5390  -27.4684   26.9357 C   0  0  0  0  0  0  0  0  0  0  0  0
  -11.7309  -26.7856   28.6249 C   0  0  0  0  0  0  0  0  0  0  0  0
  -12.0329  -25.3918   28.5811 C   0  0  0  0  0  0  0  0  0  0  0  0
  -11.8087  -24.4903   29.6506 C   0  0  0  0  0  0  0  0  0  0  0  0
  -11.2153  -24.9545   30.7928 C   0  0  0  0  0  0  0  0  0  0  0  0
  -10.8437  -26.2269   30.8925 N   0  0  0  0  0  0  0  0  0  0  0  0
  -11.1416  -27.0726   29.8439 C   0  0  0  0  0  0  0  0  0  0  0  0
  -11.8301  -33.9722   25.5047 N   0  0  0  0  0  0  0  0  0  0  0  0
  -11.1502  -34.9472   24.7523 C   0  0  0  0  0  0  0  0  0  0  0  0
  -12.9923  -36.2324   26.2197 H   0  0  0  0  0  0  0  0  0  0  0  0
  -13.4239  -37.2120   24.8053 H   0  0  0  0  0  0  0  0  0  0  0  0
  -12.2464  -37.8194   25.9988 H   0  0  0  0  0  0  0  0  0  0  0  0
  -11.0114  -38.1739   23.6822 H   0  0  0  0  0  0  0  0  0  0  0  0
   -9.2041  -37.2508   22.3005 H   0  0  0  0  0  0  0  0  0  0  0  0
   -8.5468  -34.8568   22.5128 H   0  0  0  0  0  0  0  0  0  0  0  0
  -12.5316  -31.5349   26.5990 H   0  0  0  0  0  0  0  0  0  0  0  0
  -12.8605  -29.8271   27.0568 H   0  0  0  0  0  0  0  0  0  0  0  0
  -10.1779  -27.1550   26.3439 H   0  0  0  0  0  0  0  0  0  0  0  0
  -11.4531  -27.6115   25.2275 H   0  0  0  0  0  0  0  0  0  0  0  0
  -11.4897  -26.0368   26.0026 H   0  0  0  0  0  0  0  0  0  0  0  0
  -13.7138  -27.8002   25.9021 H   0  0  0  0  0  0  0  0  0  0  0  0
  -13.8510  -26.4232   26.9710 H   0  0  0  0  0  0  0  0  0  0  0  0
  -14.2211  -28.0699   27.5433 H   0  0  0  0  0  0  0  0  0  0  0  0
  -12.4808  -24.9516   27.6913 H   0  0  0  0  0  0  0  0  0  0  0  0
  -12.1079  -23.4520   29.5639 H   0  0  0  0  0  0  0  0  0  0  0  0
  -11.0215  -24.3222   31.6501 H   0  0  0  0  0  0  0  0  0  0  0  0
  -10.9098  -28.0555   30.1707 H   0  0  0  0  0  0  0  0  0  0  0  0
  1  2  1  0
  2  3  2  0
  3  4  1  0
  4  5  2  0
  5  6  1  0
  6  7  1  0
  7  8  1  0
  8  9  1  0
  9 10  1  0
 10 11  2  0
 10 12  1  0
 12 13  1  0
 13 14  1  0
 13 15  1  0
 13 16  1  0
 16 17  2  0
 17 18  1  0
 18 19  2  0
 19 20  1  0
 20 21  2  0
  8 22  2  0
 22 23  1  0
 23  2  1  0
 23  6  2  0
 21 16  1  0
  1 24  1  0
  1 25  1  0
  1 26  1  0
  3 27  1  0
  4 28  1  0
  5 29  1  0
  9 30  1  0
 12 31  1  0
 14 32  1  0
 14 33  1  0
 14 34  1  0
 15 35  1  0
 15 36  1  0
 15 37  1  0
 17 38  1  0
 18 39  1  0
 19 40  1  0
 21 41  1  0
M  END
>  <Energy>  (1295) 
47.485708633031443

>  <compound_id>  (1295) 
6706

>  <target_id>  (1295) 
1

>  <reference_id>  (1295) 
82

>  <inspiration_ids>  (1295) 
[68, 82]

>  <energy_score>  (1295) 
12.853592315121517

>  <distance_score>  (1295) 
3.906172967352341

>  <path>  (1295) 
/opt/xchem-fragalysis-2/maxwin/BulkDock/SCRATCH/511018/C6706-P82/C6706-P82.minimised.mol

>  <scratch_subdir>  (1295) 
/opt/xchem-fragalysis-2/maxwin/BulkDock/SCRATCH/511018/C6706-P82

>  <fragmenstein_runtime>  (1295) 
2.8932571411132812

>  <fragmenstein_outcome>  (1295) 
too moved

>  <fragmenstein_mode>  (1295) 
expansion

>  <fragmenstein_error>  (1295) 


$$$$
C6707-P68
     RDKit          3D

 42 44  0  0  0  0  0  0  0  0999 V2000
  -11.3656  -35.0970   22.1604 C   0  0  0  0  0  0  0  0  0  0  0  0
  -11.1871  -36.1341   23.1242 O   0  0  0  0  0  0  0  0  0  0  0  0
  -10.6102  -35.7815   24.3149 C   0  0  0  0  0  0  0  0  0  0  0  0
  -10.3905  -36.8340   25.2282 C   0  0  0  0  0  0  0  0  0  0  0  0
   -9.7949  -36.6293   26.5036 C   0  0  0  0  0  0  0  0  0  0  0  0
   -9.5101  -35.2970   26.8786 C   0  0  0  0  0  0  0  0  0  0  0  0
   -9.0475  -34.4570   28.1647 N   0  0  0  0  0  0  0  0  0  0  0  0
   -9.3066  -32.9646   28.4819 C   0  0  0  0  0  0  0  0  0  0  0  0
   -9.9083  -31.6072   27.8947 N   0  0  0  0  0  0  0  0  0  0  0  0
   -9.5351  -29.9081   28.1837 C   0  0  0  0  0  0  0  0  0  0  0  0
   -8.7688  -29.3491   28.9942 O   0  0  0  0  0  0  0  0  0  0  0  0
  -10.3206  -29.4175   27.1595 N   0  0  0  0  0  0  0  0  0  0  0  0
  -10.4709  -27.9742   26.5573 C   0  0  0  0  0  0  0  0  0  0  0  0
  -11.6837  -27.2059   26.0586 C   0  0  0  0  0  0  0  0  0  0  0  0
  -10.1499  -27.4825   27.7792 C   0  0  0  0  0  0  0  0  0  0  0  0
  -10.4075  -26.7303   28.8792 C   0  0  0  0  0  0  0  0  0  0  0  0
   -9.8445  -24.9172   28.9253 C   0  0  0  0  0  0  0  0  0  0  0  0
  -10.2752  -23.9588   30.5138 C   0  0  0  0  0  0  0  0  0  0  0  0
  -11.3567  -24.4524   31.7099 C   0  0  0  0  0  0  0  0  0  0  0  0
  -12.2425  -26.2549   31.4429 N   0  0  0  0  0  0  0  0  0  0  0  0
  -12.1215  -27.3357   29.7860 C   0  0  0  0  0  0  0  0  0  0  0  0
   -8.2659  -33.7820   26.6429 S   0  0  0  0  0  0  0  0  0  0  0  0
   -9.6504  -34.3906   25.8959 C   0  0  0  0  0  0  0  0  0  0  0  0
  -10.1778  -34.4981   24.6235 C   0  0  0  0  0  0  0  0  0  0  0  0
  -10.4005  -34.7024   21.8253 H   0  0  0  0  0  0  0  0  0  0  0  0
  -12.0084  -34.3005   22.5498 H   0  0  0  0  0  0  0  0  0  0  0  0
  -11.8659  -35.5342   21.2910 H   0  0  0  0  0  0  0  0  0  0  0  0
  -10.6680  -37.8478   24.9408 H   0  0  0  0  0  0  0  0  0  0  0  0
   -9.6276  -37.4770   27.1496 H   0  0  0  0  0  0  0  0  0  0  0  0
  -10.5022  -31.6933   27.1091 H   0  0  0  0  0  0  0  0  0  0  0  0
  -10.7122  -30.1539   26.7038 H   0  0  0  0  0  0  0  0  0  0  0  0
   -9.8619  -27.9299   25.6665 H   0  0  0  0  0  0  0  0  0  0  0  0
  -12.4464  -26.8499   26.7415 H   0  0  0  0  0  0  0  0  0  0  0  0
  -11.3092  -26.2829   25.6156 H   0  0  0  0  0  0  0  0  0  0  0  0
  -12.2243  -27.7926   25.3468 H   0  0  0  0  0  0  0  0  0  0  0  0
  -10.9386  -28.0663   28.2291 H   0  0  0  0  0  0  0  0  0  0  0  0
   -9.2471  -27.9451   27.9401 H   0  0  0  0  0  0  0  0  0  0  0  0
   -9.5139  -24.3950   28.0318 H   0  0  0  0  0  0  0  0  0  0  0  0
  -10.6242  -22.8726   30.1856 H   0  0  0  0  0  0  0  0  0  0  0  0
  -10.6517  -24.5259   32.5573 H   0  0  0  0  0  0  0  0  0  0  0  0
  -12.1641  -28.3655   30.1782 H   0  0  0  0  0  0  0  0  0  0  0  0
  -10.1052  -33.6877   23.9154 H   0  0  0  0  0  0  0  0  0  0  0  0
  1  2  1  0
  2  3  1  0
  3  4  2  0
  4  5  1  0
  5  6  2  0
  6  7  1  0
  7  8  2  0
  8  9  1  0
  9 10  1  0
 10 11  2  0
 10 12  1  0
 12 13  1  0
 13 14  1  0
 13 15  1  0
 15 16  1  0
 16 17  2  0
 17 18  1  0
 18 19  2  0
 19 20  1  0
 20 21  2  0
  8 22  1  0
 22 23  1  0
 23 24  2  0
 24  3  1  0
 23  6  1  0
 21 16  1  0
  1 25  1  0
  1 26  1  0
  1 27  1  0
  4 28  1  0
  5 29  1  0
  9 30  1  0
 12 31  1  0
 13 32  1  0
 14 33  1  0
 14 34  1  0
 14 35  1  0
 15 36  1  0
 15 37  1  0
 17 38  1  0
 18 39  1  0
 19 40  1  0
 21 41  1  0
 24 42  1  0
M  END
>  <Energy>  (1296) 
1045.3027986466693

>  <compound_id>  (1296) 
6707

>  <target_id>  (1296) 
1

>  <reference_id>  (1296) 
68

>  <inspiration_ids>  (1296) 
[68, 82]

>  <energy_score>  (1296) 
1033.557217211062

>  <distance_score>  (1296) 
3.7149406605577173

>  <path>  (1296) 
/opt/xchem-fragalysis-2/maxwin/BulkDock/SCRATCH/511018/C6707-P68/C6707-P68.minimised.mol

>  <scratch_subdir>  (1296) 
/opt/xchem-fragalysis-2/maxwin/BulkDock/SCRATCH/511018/C6707-P68

>  <fragmenstein_runtime>  (1296) 
10.495379447937012

>  <fragmenstein_outcome>  (1296) 
too moved

>  <fragmenstein_mode>  (1296) 
expansion

>  <fragmenstein_error>  (1296) 


$$$$
C6707-P82
     RDKit          3D

 42 44  0  0  0  0  0  0  0  0999 V2000
  -10.3275  -35.7071   20.0959 C   0  0  0  0  0  0  0  0  0  0  0  0
  -11.4375  -36.4319   20.6290 O   0  0  0  0  0  0  0  0  0  0  0  0
  -12.0134  -35.8234   21.7080 C   0  0  0  0  0  0  0  0  0  0  0  0
  -13.4044  -35.8305   21.7536 C   0  0  0  0  0  0  0  0  0  0  0  0
  -14.0925  -35.1199   22.7443 C   0  0  0  0  0  0  0  0  0  0  0  0
  -13.3627  -34.3813   23.6907 C   0  0  0  0  0  0  0  0  0  0  0  0
  -13.8826  -33.4737   24.6127 N   0  0  0  0  0  0  0  0  0  0  0  0
  -12.8966  -32.8928   25.2390 C   0  0  0  0  0  0  0  0  0  0  0  0
  -12.8397  -31.6858   25.8701 N   0  0  0  0  0  0  0  0  0  0  0  0
  -13.8675  -30.6085   26.0095 C   0  0  0  0  0  0  0  0  0  0  0  0
  -14.9917  -30.5865   25.6747 O   0  0  0  0  0  0  0  0  0  0  0  0
  -13.0128  -29.5229   26.6114 N   0  0  0  0  0  0  0  0  0  0  0  0
  -13.3039  -28.0953   26.8643 C   0  0  0  0  0  0  0  0  0  0  0  0
  -13.7039  -27.3933   25.5685 C   0  0  0  0  0  0  0  0  0  0  0  0
  -12.0479  -27.4490   27.4945 C   0  0  0  0  0  0  0  0  0  0  0  0
  -11.9633  -26.0684   28.0830 C   0  0  0  0  0  0  0  0  0  0  0  0
  -12.1608  -24.9058   27.3441 C   0  0  0  0  0  0  0  0  0  0  0  0
  -11.9731  -23.6634   27.9465 C   0  0  0  0  0  0  0  0  0  0  0  0
  -11.5964  -23.6184   29.2764 C   0  0  0  0  0  0  0  0  0  0  0  0
  -11.3067  -24.7111   30.0053 N   0  0  0  0  0  0  0  0  0  0  0  0
  -11.4949  -25.8986   29.3927 C   0  0  0  0  0  0  0  0  0  0  0  0
  -11.3476  -33.5547   24.9449 S   0  0  0  0  0  0  0  0  0  0  0  0
  -11.9731  -34.4894   23.6742 C   0  0  0  0  0  0  0  0  0  0  0  0
  -11.2683  -35.2240   22.7170 C   0  0  0  0  0  0  0  0  0  0  0  0
  -10.1509  -36.0735   19.0799 H   0  0  0  0  0  0  0  0  0  0  0  0
  -10.5308  -34.6318   20.0321 H   0  0  0  0  0  0  0  0  0  0  0  0
   -9.4226  -35.9018   20.6801 H   0  0  0  0  0  0  0  0  0  0  0  0
  -13.9664  -36.3479   20.9792 H   0  0  0  0  0  0  0  0  0  0  0  0
  -15.1770  -35.0732   22.7407 H   0  0  0  0  0  0  0  0  0  0  0  0
  -12.0037  -31.4077   26.3371 H   0  0  0  0  0  0  0  0  0  0  0  0
  -12.0711  -29.8532   26.7023 H   0  0  0  0  0  0  0  0  0  0  0  0
  -14.1590  -28.0892   27.5384 H   0  0  0  0  0  0  0  0  0  0  0  0
  -12.8641  -27.3424   24.8669 H   0  0  0  0  0  0  0  0  0  0  0  0
  -14.5142  -27.9303   25.0638 H   0  0  0  0  0  0  0  0  0  0  0  0
  -14.0661  -26.3800   25.7597 H   0  0  0  0  0  0  0  0  0  0  0  0
  -11.2444  -27.5075   26.7482 H   0  0  0  0  0  0  0  0  0  0  0  0
  -11.7834  -28.1318   28.3062 H   0  0  0  0  0  0  0  0  0  0  0  0
  -12.4335  -24.9351   26.2942 H   0  0  0  0  0  0  0  0  0  0  0  0
  -12.1344  -22.7455   27.3922 H   0  0  0  0  0  0  0  0  0  0  0  0
  -11.5017  -22.6683   29.7913 H   0  0  0  0  0  0  0  0  0  0  0  0
  -11.2293  -26.7488   30.0146 H   0  0  0  0  0  0  0  0  0  0  0  0
  -10.1853  -35.2611   22.7377 H   0  0  0  0  0  0  0  0  0  0  0  0
  1  2  1  0
  2  3  1  0
  3  4  2  0
  4  5  1  0
  5  6  2  0
  6  7  1  0
  7  8  2  0
  8  9  1  0
  9 10  1  0
 10 11  2  0
 10 12  1  0
 12 13  1  0
 13 14  1  0
 13 15  1  0
 15 16  1  0
 16 17  2  0
 17 18  1  0
 18 19  2  0
 19 20  1  0
 20 21  2  0
  8 22  1  0
 22 23  1  0
 23 24  2  0
 24  3  1  0
 23  6  1  0
 21 16  1  0
  1 25  1  0
  1 26  1  0
  1 27  1  0
  4 28  1  0
  5 29  1  0
  9 30  1  0
 12 31  1  0
 13 32  1  0
 14 33  1  0
 14 34  1  0
 14 35  1  0
 15 36  1  0
 15 37  1  0
 17 38  1  0
 18 39  1  0
 19 40  1  0
 21 41  1  0
 24 42  1  0
M  END
>  <Energy>  (1297) 
-5.3321318233917001

>  <compound_id>  (1297) 
6707

>  <target_id>  (1297) 
1

>  <reference_id>  (1297) 
82

>  <inspiration_ids>  (1297) 
[68, 82]

>  <energy_score>  (1297) 
-17.07771325899222

>  <distance_score>  (1297) 
4.603934265686351

>  <path>  (1297) 
/opt/xchem-fragalysis-2/maxwin/BulkDock/SCRATCH/511018/C6707-P82/C6707-P82.minimised.mol

>  <scratch_subdir>  (1297) 
/opt/xchem-fragalysis-2/maxwin/BulkDock/SCRATCH/511018/C6707-P82

>  <fragmenstein_runtime>  (1297) 
7.365617275238037

>  <fragmenstein_outcome>  (1297) 
too moved

>  <fragmenstein_mode>  (1297) 
expansion

>  <fragmenstein_error>  (1297) 


$$$$
C6708-P68
     RDKit          3D

 38 40  0  0  0  0  0  0  0  0999 V2000
  -13.1078  -25.6449   25.6445 C   0  0  0  0  0  0  0  0  0  0  0  0
  -11.6646  -25.9611   26.1645 C   0  0  0  0  0  0  0  0  0  0  0  0
  -10.3434  -26.4073   25.8311 C   0  0  0  0  0  0  0  0  0  0  0  0
  -12.1542  -27.4292   26.3348 N   0  0  0  0  0  0  0  0  0  0  0  0
  -11.3643  -28.8049   26.9431 C   0  0  0  0  0  0  0  0  0  0  0  0
  -10.2720  -28.9285   27.4587 O   0  0  0  0  0  0  0  0  0  0  0  0
  -12.6830  -30.1335   26.4246 N   0  0  0  0  0  0  0  0  0  0  0  0
  -12.6953  -31.5759   26.5496 C   0  0  0  0  0  0  0  0  0  0  0  0
  -13.8754  -32.0261   26.9864 N   0  0  0  0  0  0  0  0  0  0  0  0
  -14.2091  -33.3360   26.6105 C   0  0  0  0  0  0  0  0  0  0  0  0
  -15.3081  -34.1064   27.0307 C   0  0  0  0  0  0  0  0  0  0  0  0
  -16.1981  -33.6088   27.9020 F   0  0  0  0  0  0  0  0  0  0  0  0
  -15.4972  -35.4029   26.5410 C   0  0  0  0  0  0  0  0  0  0  0  0
  -14.6121  -35.9468   25.6163 C   0  0  0  0  0  0  0  0  0  0  0  0
  -13.5207  -35.2055   25.1708 C   0  0  0  0  0  0  0  0  0  0  0  0
  -13.3488  -33.9143   25.6971 C   0  0  0  0  0  0  0  0  0  0  0  0
  -12.1295  -32.8074   25.3729 S   0  0  0  0  0  0  0  0  0  0  0  0
  -11.2588  -24.4653   26.6679 C   0  0  0  0  0  0  0  0  0  0  0  0
  -11.9113  -23.2759   26.3727 C   0  0  0  0  0  0  0  0  0  0  0  0
  -11.7711  -22.1618   27.2096 C   0  0  0  0  0  0  0  0  0  0  0  0
  -10.9943  -22.2238   28.3150 C   0  0  0  0  0  0  0  0  0  0  0  0
  -10.0767  -23.1743   28.3811 N   0  0  0  0  0  0  0  0  0  0  0  0
  -10.2012  -24.2253   27.5467 C   0  0  0  0  0  0  0  0  0  0  0  0
  -13.6456  -25.6748   26.5670 H   0  0  0  0  0  0  0  0  0  0  0  0
  -13.6684  -26.3957   25.0737 H   0  0  0  0  0  0  0  0  0  0  0  0
  -13.4073  -24.7171   25.1700 H   0  0  0  0  0  0  0  0  0  0  0  0
  -10.0141  -26.7372   26.8117 H   0  0  0  0  0  0  0  0  0  0  0  0
   -9.6657  -25.6028   25.5686 H   0  0  0  0  0  0  0  0  0  0  0  0
  -10.2698  -27.3141   25.2298 H   0  0  0  0  0  0  0  0  0  0  0  0
  -13.0823  -27.6683   26.0523 H   0  0  0  0  0  0  0  0  0  0  0  0
  -13.5082  -29.7179   26.1088 H   0  0  0  0  0  0  0  0  0  0  0  0
  -16.3537  -35.9753   26.8874 H   0  0  0  0  0  0  0  0  0  0  0  0
  -14.7752  -36.9535   25.2366 H   0  0  0  0  0  0  0  0  0  0  0  0
  -12.8206  -35.6177   24.4492 H   0  0  0  0  0  0  0  0  0  0  0  0
  -12.6375  -23.1173   25.5869 H   0  0  0  0  0  0  0  0  0  0  0  0
  -12.3531  -21.2925   27.0200 H   0  0  0  0  0  0  0  0  0  0  0  0
  -11.0131  -21.4707   29.0878 H   0  0  0  0  0  0  0  0  0  0  0  0
   -9.5347  -25.0051   27.8229 H   0  0  0  0  0  0  0  0  0  0  0  0
  1  2  1  0
  2  3  1  0
  2  4  1  0
  4  5  1  0
  5  6  2  0
  5  7  1  0
  7  8  1  0
  8  9  2  0
  9 10  1  0
 10 11  2  0
 11 12  1  0
 11 13  1  0
 13 14  2  0
 14 15  1  0
 15 16  2  0
 16 17  1  0
  2 18  1  0
 18 19  2  0
 19 20  1  0
 20 21  2  0
 21 22  1  0
 22 23  2  0
 17  8  1  0
 23 18  1  0
 16 10  1  0
  1 24  1  0
  1 25  1  0
  1 26  1  0
  3 27  1  0
  3 28  1  0
  3 29  1  0
  4 30  1  0
  7 31  1  0
 13 32  1  0
 14 33  1  0
 15 34  1  0
 19 35  1  0
 20 36  1  0
 21 37  1  0
 23 38  1  0
M  END
>  <Energy>  (1298) 
273.34551029033452

>  <compound_id>  (1298) 
6708

>  <target_id>  (1298) 
1

>  <reference_id>  (1298) 
68

>  <inspiration_ids>  (1298) 
[68, 82]

>  <energy_score>  (1298) 
204.71586581440192

>  <distance_score>  (1298) 
5.705325930080388

>  <path>  (1298) 
/opt/xchem-fragalysis-2/maxwin/BulkDock/SCRATCH/511018/C6708-P68/C6708-P68.minimised.mol

>  <scratch_subdir>  (1298) 
/opt/xchem-fragalysis-2/maxwin/BulkDock/SCRATCH/511018/C6708-P68

>  <fragmenstein_runtime>  (1298) 
9.635762929916382

>  <fragmenstein_outcome>  (1298) 
too moved

>  <fragmenstein_mode>  (1298) 
expansion

>  <fragmenstein_error>  (1298) 


$$$$
C6708-P82
     RDKit          3D

 38 40  0  0  0  0  0  0  0  0999 V2000
  -13.4746  -27.2718   26.9168 C   0  0  0  0  0  0  0  0  0  0  0  0
  -12.0191  -27.5106   27.4352 C   0  0  0  0  0  0  0  0  0  0  0  0
  -11.1497  -26.8316   26.3429 C   0  0  0  0  0  0  0  0  0  0  0  0
  -11.9292  -29.0764   27.1411 N   0  0  0  0  0  0  0  0  0  0  0  0
  -10.7651  -29.9404   26.4127 C   0  0  0  0  0  0  0  0  0  0  0  0
   -9.7215  -29.6106   26.0244 O   0  0  0  0  0  0  0  0  0  0  0  0
  -11.5279  -31.3807   26.2831 N   0  0  0  0  0  0  0  0  0  0  0  0
  -11.1373  -32.5987   25.5602 C   0  0  0  0  0  0  0  0  0  0  0  0
  -11.8282  -33.7228   25.4930 N   0  0  0  0  0  0  0  0  0  0  0  0
  -11.1885  -34.7200   24.7283 C   0  0  0  0  0  0  0  0  0  0  0  0
  -11.5886  -36.0580   24.5742 C   0  0  0  0  0  0  0  0  0  0  0  0
  -12.6589  -36.5303   25.2305 F   0  0  0  0  0  0  0  0  0  0  0  0
  -10.9034  -36.9055   23.7076 C   0  0  0  0  0  0  0  0  0  0  0  0
   -9.8174  -36.4385   22.9769 C   0  0  0  0  0  0  0  0  0  0  0  0
   -9.3707  -35.1299   23.1283 C   0  0  0  0  0  0  0  0  0  0  0  0
  -10.0664  -34.3074   24.0259 C   0  0  0  0  0  0  0  0  0  0  0  0
   -9.7241  -32.7093   24.4743 S   0  0  0  0  0  0  0  0  0  0  0  0
  -11.7401  -26.6415   28.7486 C   0  0  0  0  0  0  0  0  0  0  0  0
  -12.1412  -25.2778   28.8113 C   0  0  0  0  0  0  0  0  0  0  0  0
  -11.9297  -24.4365   29.9306 C   0  0  0  0  0  0  0  0  0  0  0  0
  -11.2485  -24.9305   31.0094 C   0  0  0  0  0  0  0  0  0  0  0  0
  -10.7582  -26.1673   30.9928 N   0  0  0  0  0  0  0  0  0  0  0  0
  -11.0247  -26.9538   29.8931 C   0  0  0  0  0  0  0  0  0  0  0  0
  -13.8057  -26.2334   26.9562 H   0  0  0  0  0  0  0  0  0  0  0  0
  -13.5685  -27.5803   25.8656 H   0  0  0  0  0  0  0  0  0  0  0  0
  -14.1897  -27.8992   27.4559 H   0  0  0  0  0  0  0  0  0  0  0  0
  -10.1006  -26.8618   26.6300 H   0  0  0  0  0  0  0  0  0  0  0  0
  -11.4102  -25.7782   26.1864 H   0  0  0  0  0  0  0  0  0  0  0  0
  -11.2462  -27.3297   25.3716 H   0  0  0  0  0  0  0  0  0  0  0  0
  -12.6785  -29.6849   27.4236 H   0  0  0  0  0  0  0  0  0  0  0  0
  -12.4559  -31.3095   26.6584 H   0  0  0  0  0  0  0  0  0  0  0  0
  -11.2406  -37.9321   23.5955 H   0  0  0  0  0  0  0  0  0  0  0  0
   -9.2963  -37.1061   22.2930 H   0  0  0  0  0  0  0  0  0  0  0  0
   -8.5023  -34.7612   22.5864 H   0  0  0  0  0  0  0  0  0  0  0  0
  -12.6493  -24.8125   27.9694 H   0  0  0  0  0  0  0  0  0  0  0  0
  -12.3090  -23.4211   29.9328 H   0  0  0  0  0  0  0  0  0  0  0  0
  -11.0663  -24.3460   31.9026 H   0  0  0  0  0  0  0  0  0  0  0  0
  -10.6044  -27.9076   30.0854 H   0  0  0  0  0  0  0  0  0  0  0  0
  1  2  1  0
  2  3  1  0
  2  4  1  0
  4  5  1  0
  5  6  2  0
  5  7  1  0
  7  8  1  0
  8  9  2  0
  9 10  1  0
 10 11  2  0
 11 12  1  0
 11 13  1  0
 13 14  2  0
 14 15  1  0
 15 16  2  0
 16 17  1  0
  2 18  1  0
 18 19  2  0
 19 20  1  0
 20 21  2  0
 21 22  1  0
 22 23  2  0
 17  8  1  0
 23 18  1  0
 16 10  1  0
  1 24  1  0
  1 25  1  0
  1 26  1  0
  3 27  1  0
  3 28  1  0
  3 29  1  0
  4 30  1  0
  7 31  1  0
 13 32  1  0
 14 33  1  0
 15 34  1  0
 19 35  1  0
 20 36  1  0
 21 37  1  0
 23 38  1  0
M  END
>  <Energy>  (1299) 
51.84249373557585

>  <compound_id>  (1299) 
6708

>  <target_id>  (1299) 
1

>  <reference_id>  (1299) 
82

>  <inspiration_ids>  (1299) 
[68, 82]

>  <energy_score>  (1299) 
1.029907206091906

>  <distance_score>  (1299) 
3.8197887771144194

>  <path>  (1299) 
/opt/xchem-fragalysis-2/maxwin/BulkDock/SCRATCH/511018/C6708-P82/C6708-P82.minimised.mol

>  <scratch_subdir>  (1299) 
/opt/xchem-fragalysis-2/maxwin/BulkDock/SCRATCH/511018/C6708-P82

>  <fragmenstein_runtime>  (1299) 
4.1810362339019775

>  <fragmenstein_outcome>  (1299) 
too moved

>  <fragmenstein_mode>  (1299) 
expansion

>  <fragmenstein_error>  (1299) 


$$$$
C6709-P68
     RDKit          3D

 38 40  0  0  0  0  0  0  0  0999 V2000
  -13.4174  -34.3185   25.2190 N   0  0  0  0  0  0  0  0  0  0  0  0
  -13.3143  -33.3365   25.8267 C   0  0  0  0  0  0  0  0  0  0  0  0
  -13.1932  -32.0814   26.5951 C   0  0  0  0  0  0  0  0  0  0  0  0
  -11.5844  -31.4254   26.4986 C   0  0  0  0  0  0  0  0  0  0  0  0
  -10.0571  -30.7991   27.6091 N   0  0  0  0  0  0  0  0  0  0  0  0
   -9.6041  -29.0117   28.1535 C   0  0  0  0  0  0  0  0  0  0  0  0
   -9.4580  -28.1080   29.9345 C   0  0  0  0  0  0  0  0  0  0  0  0
  -10.6824  -28.3391   31.1335 C   0  0  0  0  0  0  0  0  0  0  0  0
  -10.8156  -27.3549   32.1344 C   0  0  0  0  0  0  0  0  0  0  0  0
   -9.5816  -26.0780   32.1310 C   0  0  0  0  0  0  0  0  0  0  0  0
   -8.5816  -25.8537   31.2562 N   0  0  0  0  0  0  0  0  0  0  0  0
   -8.5894  -26.9119   30.3203 C   0  0  0  0  0  0  0  0  0  0  0  0
   -9.5070  -32.4281   28.2948 C   0  0  0  0  0  0  0  0  0  0  0  0
   -9.1504  -33.9975   27.2181 C   0  0  0  0  0  0  0  0  0  0  0  0
   -9.2082  -35.3000   27.4991 N   0  0  0  0  0  0  0  0  0  0  0  0
   -9.4321  -36.1761   26.3764 C   0  0  0  0  0  0  0  0  0  0  0  0
   -9.8515  -37.5260   26.3852 C   0  0  0  0  0  0  0  0  0  0  0  0
  -10.0646  -38.2345   25.1936 C   0  0  0  0  0  0  0  0  0  0  0  0
   -9.8599  -37.6257   23.9677 C   0  0  0  0  0  0  0  0  0  0  0  0
   -9.4377  -36.3035   23.9175 C   0  0  0  0  0  0  0  0  0  0  0  0
   -9.2496  -35.6182   25.1320 C   0  0  0  0  0  0  0  0  0  0  0  0
   -8.7369  -34.0427   25.3407 S   0  0  0  0  0  0  0  0  0  0  0  0
  -13.6451  -32.1652   27.5809 H   0  0  0  0  0  0  0  0  0  0  0  0
  -13.8717  -31.3747   26.0935 H   0  0  0  0  0  0  0  0  0  0  0  0
  -12.2195  -30.5522   26.3715 H   0  0  0  0  0  0  0  0  0  0  0  0
  -11.2281  -32.2120   25.8188 H   0  0  0  0  0  0  0  0  0  0  0  0
  -10.3998  -28.4289   27.6628 H   0  0  0  0  0  0  0  0  0  0  0  0
   -8.6830  -28.7796   27.6789 H   0  0  0  0  0  0  0  0  0  0  0  0
  -11.6443  -28.8395   31.0091 H   0  0  0  0  0  0  0  0  0  0  0  0
  -11.6672  -27.2767   32.8102 H   0  0  0  0  0  0  0  0  0  0  0  0
   -9.7825  -25.1708   32.7022 H   0  0  0  0  0  0  0  0  0  0  0  0
   -7.5265  -26.8805   29.9888 H   0  0  0  0  0  0  0  0  0  0  0  0
  -10.1345  -32.6471   29.0998 H   0  0  0  0  0  0  0  0  0  0  0  0
   -8.9583  -32.3253   29.2068 H   0  0  0  0  0  0  0  0  0  0  0  0
  -10.0370  -38.0473   27.3115 H   0  0  0  0  0  0  0  0  0  0  0  0
  -10.3874  -39.2720   25.2404 H   0  0  0  0  0  0  0  0  0  0  0  0
  -10.0220  -38.1805   23.0474 H   0  0  0  0  0  0  0  0  0  0  0  0
   -9.2649  -35.8110   22.9656 H   0  0  0  0  0  0  0  0  0  0  0  0
  1  2  3  0
  2  3  1  0
  3  4  1  0
  4  5  1  0
  5  6  1  0
  6  7  1  0
  7  8  2  0
  8  9  1  0
  9 10  2  0
 10 11  1  0
 11 12  2  0
  5 13  1  0
 13 14  1  0
 14 15  2  0
 15 16  1  0
 16 17  2  0
 17 18  1  0
 18 19  2  0
 19 20  1  0
 20 21  2  0
 21 22  1  0
 12  7  1  0
 22 14  1  0
 21 16  1  0
  3 23  1  0
  3 24  1  0
  4 25  1  0
  4 26  1  0
  6 27  1  0
  6 28  1  0
  8 29  1  0
  9 30  1  0
 10 31  1  0
 12 32  1  0
 13 33  1  0
 13 34  1  0
 17 35  1  0
 18 36  1  0
 19 37  1  0
 20 38  1  0
M  END
>  <Energy>  (1300) 
599.18850988120471

>  <compound_id>  (1300) 
6709

>  <target_id>  (1300) 
1

>  <reference_id>  (1300) 
68

>  <inspiration_ids>  (1300) 
[68, 82]

>  <energy_score>  (1300) 
456.4895958992171

>  <distance_score>  (1300) 
4.061453876600425

>  <path>  (1300) 
/opt/xchem-fragalysis-2/maxwin/BulkDock/SCRATCH/511018/C6709-P68/C6709-P68.minimised.mol

>  <scratch_subdir>  (1300) 
/opt/xchem-fragalysis-2/maxwin/BulkDock/SCRATCH/511018/C6709-P68

>  <fragmenstein_runtime>  (1300) 
5.805531978607178

>  <fragmenstein_outcome>  (1300) 
too moved

>  <fragmenstein_mode>  (1300) 
expansion

>  <fragmenstein_error>  (1300) 


$$$$
C6709-P82
     RDKit          3D

 38 40  0  0  0  0  0  0  0  0999 V2000
  -17.7962  -30.6137   24.8191 N   0  0  0  0  0  0  0  0  0  0  0  0
  -16.7594  -31.1323   24.7874 C   0  0  0  0  0  0  0  0  0  0  0  0
  -15.4441  -31.7833   24.7394 C   0  0  0  0  0  0  0  0  0  0  0  0
  -14.4982  -31.1683   25.7848 C   0  0  0  0  0  0  0  0  0  0  0  0
  -13.0283  -31.4649   25.6820 N   0  0  0  0  0  0  0  0  0  0  0  0
  -12.4150  -30.9248   26.9463 C   0  0  0  0  0  0  0  0  0  0  0  0
  -12.5276  -29.4144   27.4062 C   0  0  0  0  0  0  0  0  0  0  0  0
  -12.1781  -28.2729   26.6666 C   0  0  0  0  0  0  0  0  0  0  0  0
  -11.9061  -27.0312   27.2858 C   0  0  0  0  0  0  0  0  0  0  0  0
  -11.9226  -26.9695   28.6576 C   0  0  0  0  0  0  0  0  0  0  0  0
  -12.3281  -28.0241   29.3988 N   0  0  0  0  0  0  0  0  0  0  0  0
  -12.6948  -29.1731   28.7588 C   0  0  0  0  0  0  0  0  0  0  0  0
  -12.8166  -32.9770   25.3987 C   0  0  0  0  0  0  0  0  0  0  0  0
  -11.4846  -33.7420   24.9314 C   0  0  0  0  0  0  0  0  0  0  0  0
  -10.9885  -34.7901   25.5760 N   0  0  0  0  0  0  0  0  0  0  0  0
  -10.0293  -35.4529   24.8215 C   0  0  0  0  0  0  0  0  0  0  0  0
   -9.3136  -36.5868   25.2262 C   0  0  0  0  0  0  0  0  0  0  0  0
   -8.3905  -37.1417   24.3442 C   0  0  0  0  0  0  0  0  0  0  0  0
   -8.1746  -36.5857   23.0848 C   0  0  0  0  0  0  0  0  0  0  0  0
   -8.8733  -35.4624   22.6630 C   0  0  0  0  0  0  0  0  0  0  0  0
   -9.7985  -34.9255   23.5581 C   0  0  0  0  0  0  0  0  0  0  0  0
  -10.8286  -33.5985   23.3353 S   0  0  0  0  0  0  0  0  0  0  0  0
  -15.0274  -31.6847   23.7337 H   0  0  0  0  0  0  0  0  0  0  0  0
  -15.5770  -32.8538   24.9336 H   0  0  0  0  0  0  0  0  0  0  0  0
  -14.8688  -31.4770   26.7730 H   0  0  0  0  0  0  0  0  0  0  0  0
  -14.6096  -30.0770   25.7348 H   0  0  0  0  0  0  0  0  0  0  0  0
  -11.3420  -31.1453   26.9250 H   0  0  0  0  0  0  0  0  0  0  0  0
  -12.8705  -31.5013   27.7567 H   0  0  0  0  0  0  0  0  0  0  0  0
  -12.0146  -28.3554   25.5921 H   0  0  0  0  0  0  0  0  0  0  0  0
  -11.6004  -26.1745   26.6939 H   0  0  0  0  0  0  0  0  0  0  0  0
  -11.6599  -26.0704   29.2060 H   0  0  0  0  0  0  0  0  0  0  0  0
  -13.0124  -29.9684   29.4339 H   0  0  0  0  0  0  0  0  0  0  0  0
  -13.2517  -33.5439   26.2305 H   0  0  0  0  0  0  0  0  0  0  0  0
  -13.4599  -33.2032   24.5395 H   0  0  0  0  0  0  0  0  0  0  0  0
   -9.4831  -37.0159   26.2074 H   0  0  0  0  0  0  0  0  0  0  0  0
   -7.8247  -38.0209   24.6445 H   0  0  0  0  0  0  0  0  0  0  0  0
   -7.4366  -37.0318   22.4203 H   0  0  0  0  0  0  0  0  0  0  0  0
   -8.6983  -35.0183   21.6881 H   0  0  0  0  0  0  0  0  0  0  0  0
  1  2  3  0
  2  3  1  0
  3  4  1  0
  4  5  1  0
  5  6  1  0
  6  7  1  0
  7  8  2  0
  8  9  1  0
  9 10  2  0
 10 11  1  0
 11 12  2  0
  5 13  1  0
 13 14  1  0
 14 15  2  0
 15 16  1  0
 16 17  2  0
 17 18  1  0
 18 19  2  0
 19 20  1  0
 20 21  2  0
 21 22  1  0
 12  7  1  0
 22 14  1  0
 21 16  1  0
  3 23  1  0
  3 24  1  0
  4 25  1  0
  4 26  1  0
  6 27  1  0
  6 28  1  0
  8 29  1  0
  9 30  1  0
 10 31  1  0
 12 32  1  0
 13 33  1  0
 13 34  1  0
 17 35  1  0
 18 36  1  0
 19 37  1  0
 20 38  1  0
M  END
>  <Energy>  (1301) 
101.02870206611689

>  <compound_id>  (1301) 
6709

>  <target_id>  (1301) 
1

>  <reference_id>  (1301) 
82

>  <inspiration_ids>  (1301) 
[68, 82]

>  <energy_score>  (1301) 
-22.41279069098823

>  <distance_score>  (1301) 
4.779107214047622

>  <path>  (1301) 
/opt/xchem-fragalysis-2/maxwin/BulkDock/SCRATCH/511018/C6709-P82/C6709-P82.minimised.mol

>  <scratch_subdir>  (1301) 
/opt/xchem-fragalysis-2/maxwin/BulkDock/SCRATCH/511018/C6709-P82

>  <fragmenstein_runtime>  (1301) 
2.8290154933929443

>  <fragmenstein_outcome>  (1301) 
too moved

>  <fragmenstein_mode>  (1301) 
expansion

>  <fragmenstein_error>  (1301) 


$$$$
C6710-P68
     RDKit          3D

 35 38  0  0  0  0  0  0  0  0999 V2000
  -15.9672  -32.8267   25.9194 F   0  0  0  0  0  0  0  0  0  0  0  0
  -14.9547  -31.9720   25.6029 C   0  0  0  0  0  0  0  0  0  0  0  0
  -15.5127  -30.7407   25.5620 F   0  0  0  0  0  0  0  0  0  0  0  0
  -13.9016  -32.0634   26.6760 C   0  0  0  0  0  0  0  0  0  0  0  0
  -12.6716  -31.3190   26.5463 N   0  0  0  0  0  0  0  0  0  0  0  0
  -12.5510  -30.0367   26.6172 N   0  0  0  0  0  0  0  0  0  0  0  0
  -11.3654  -29.1159   27.6535 C   0  0  0  0  0  0  0  0  0  0  0  0
  -11.8141  -28.3554   29.5135 C   0  0  0  0  0  0  0  0  0  0  0  0
  -12.7225  -28.8846   30.7880 C   0  0  0  0  0  0  0  0  0  0  0  0
  -13.0542  -29.5116   32.1823 C   0  0  0  0  0  0  0  0  0  0  0  0
  -12.0226  -29.7181   32.9111 C   0  0  0  0  0  0  0  0  0  0  0  0
  -11.0449  -29.1508   32.2768 N   0  0  0  0  0  0  0  0  0  0  0  0
  -11.0104  -28.4759   30.9263 C   0  0  0  0  0  0  0  0  0  0  0  0
  -10.4118  -30.4695   27.0479 N   0  0  0  0  0  0  0  0  0  0  0  0
  -11.4069  -31.6610   26.3050 C   0  0  0  0  0  0  0  0  0  0  0  0
  -11.1708  -33.1116   25.3142 C   0  0  0  0  0  0  0  0  0  0  0  0
  -10.2742  -34.1741   25.6338 C   0  0  0  0  0  0  0  0  0  0  0  0
   -9.9503  -35.2403   24.7810 C   0  0  0  0  0  0  0  0  0  0  0  0
  -10.5019  -35.2700   23.5021 C   0  0  0  0  0  0  0  0  0  0  0  0
  -10.2165  -36.2056   22.5256 N   0  0  0  0  0  0  0  0  0  0  0  0
  -10.8731  -35.9031   21.4320 C   0  0  0  0  0  0  0  0  0  0  0  0
  -11.8888  -34.5269   21.5147 S   0  0  0  0  0  0  0  0  0  0  0  0
  -11.4086  -34.2698   23.1536 C   0  0  0  0  0  0  0  0  0  0  0  0
  -11.7906  -33.2297   24.0464 C   0  0  0  0  0  0  0  0  0  0  0  0
  -14.6015  -32.2481   24.6092 H   0  0  0  0  0  0  0  0  0  0  0  0
  -14.3584  -31.7673   27.6257 H   0  0  0  0  0  0  0  0  0  0  0  0
  -13.6451  -33.1219   26.7796 H   0  0  0  0  0  0  0  0  0  0  0  0
  -13.7822  -28.8067   30.6627 H   0  0  0  0  0  0  0  0  0  0  0  0
  -14.0707  -29.7135   32.4887 H   0  0  0  0  0  0  0  0  0  0  0  0
  -11.9235  -30.1451   33.8879 H   0  0  0  0  0  0  0  0  0  0  0  0
   -9.9612  -28.1524   30.7588 H   0  0  0  0  0  0  0  0  0  0  0  0
   -9.7165  -34.1818   26.5730 H   0  0  0  0  0  0  0  0  0  0  0  0
   -9.2284  -35.9936   25.0838 H   0  0  0  0  0  0  0  0  0  0  0  0
  -10.7890  -36.4898   20.5264 H   0  0  0  0  0  0  0  0  0  0  0  0
  -12.4657  -32.4745   23.6681 H   0  0  0  0  0  0  0  0  0  0  0  0
  1  2  1  0
  2  3  1  0
  2  4  1  0
  4  5  1  0
  5  6  1  0
  6  7  2  0
  7  8  1  0
  8  9  2  0
  9 10  1  0
 10 11  2  0
 11 12  1  0
 12 13  2  0
  7 14  1  0
 14 15  2  0
 15 16  1  0
 16 17  2  0
 17 18  1  0
 18 19  2  0
 19 20  1  0
 20 21  2  0
 21 22  1  0
 22 23  1  0
 23 24  2  0
 15  5  1  0
 24 16  1  0
 13  8  1  0
 23 19  1  0
  2 25  1  0
  4 26  1  0
  4 27  1  0
  9 28  1  0
 10 29  1  0
 11 30  1  0
 13 31  1  0
 17 32  1  0
 18 33  1  0
 21 34  1  0
 24 35  1  0
M  END
>  <Energy>  (1302) 
699.61389706016234

>  <compound_id>  (1302) 
6710

>  <target_id>  (1302) 
1

>  <reference_id>  (1302) 
68

>  <inspiration_ids>  (1302) 
[68, 82]

>  <energy_score>  (1302) 
574.0495676082508

>  <distance_score>  (1302) 
4.335921953971439

>  <path>  (1302) 
/opt/xchem-fragalysis-2/maxwin/BulkDock/SCRATCH/511018/C6710-P68/C6710-P68.minimised.mol

>  <scratch_subdir>  (1302) 
/opt/xchem-fragalysis-2/maxwin/BulkDock/SCRATCH/511018/C6710-P68

>  <fragmenstein_runtime>  (1302) 
8.382951259613037

>  <fragmenstein_outcome>  (1302) 
too moved

>  <fragmenstein_mode>  (1302) 
expansion

>  <fragmenstein_error>  (1302) 


$$$$
C6710-P82
     RDKit          3D

 35 38  0  0  0  0  0  0  0  0999 V2000
  -14.4989  -35.0718   26.0087 F   0  0  0  0  0  0  0  0  0  0  0  0
  -15.3101  -34.1846   25.3860 C   0  0  0  0  0  0  0  0  0  0  0  0
  -15.9897  -33.5214   26.3495 F   0  0  0  0  0  0  0  0  0  0  0  0
  -14.5097  -33.2420   24.5175 C   0  0  0  0  0  0  0  0  0  0  0  0
  -13.5328  -32.4863   25.2707 N   0  0  0  0  0  0  0  0  0  0  0  0
  -13.9282  -31.3287   25.9163 N   0  0  0  0  0  0  0  0  0  0  0  0
  -12.7955  -30.8617   26.4720 C   0  0  0  0  0  0  0  0  0  0  0  0
  -12.6487  -29.5425   27.2336 C   0  0  0  0  0  0  0  0  0  0  0  0
  -12.2364  -28.3292   26.6365 C   0  0  0  0  0  0  0  0  0  0  0  0
  -11.9211  -27.1733   27.3845 C   0  0  0  0  0  0  0  0  0  0  0  0
  -11.9827  -27.2615   28.7512 C   0  0  0  0  0  0  0  0  0  0  0  0
  -12.4807  -28.3683   29.3694 N   0  0  0  0  0  0  0  0  0  0  0  0
  -12.8300  -29.4571   28.6009 C   0  0  0  0  0  0  0  0  0  0  0  0
  -11.7104  -31.6949   26.1091 N   0  0  0  0  0  0  0  0  0  0  0  0
  -12.1726  -32.7075   25.3549 C   0  0  0  0  0  0  0  0  0  0  0  0
  -11.3875  -33.8993   24.8191 C   0  0  0  0  0  0  0  0  0  0  0  0
  -11.4551  -35.1207   25.5046 C   0  0  0  0  0  0  0  0  0  0  0  0
  -10.5760  -36.1953   25.2486 C   0  0  0  0  0  0  0  0  0  0  0  0
   -9.5950  -36.0936   24.2484 C   0  0  0  0  0  0  0  0  0  0  0  0
   -8.6262  -37.0416   23.9474 N   0  0  0  0  0  0  0  0  0  0  0  0
   -7.8964  -36.6115   22.9431 C   0  0  0  0  0  0  0  0  0  0  0  0
   -8.3324  -35.0900   22.2880 S   0  0  0  0  0  0  0  0  0  0  0  0
   -9.5778  -34.9301   23.4805 C   0  0  0  0  0  0  0  0  0  0  0  0
  -10.4669  -33.8427   23.7425 C   0  0  0  0  0  0  0  0  0  0  0  0
  -16.0326  -34.7472   24.7883 H   0  0  0  0  0  0  0  0  0  0  0  0
  -15.1684  -32.5154   24.0292 H   0  0  0  0  0  0  0  0  0  0  0  0
  -13.9776  -33.7963   23.7382 H   0  0  0  0  0  0  0  0  0  0  0  0
  -12.0891  -28.2962   25.5565 H   0  0  0  0  0  0  0  0  0  0  0  0
  -11.5638  -26.2733   26.8961 H   0  0  0  0  0  0  0  0  0  0  0  0
  -11.6962  -26.4391   29.4011 H   0  0  0  0  0  0  0  0  0  0  0  0
  -13.1933  -30.3128   29.1664 H   0  0  0  0  0  0  0  0  0  0  0  0
  -12.1583  -35.2541   26.3267 H   0  0  0  0  0  0  0  0  0  0  0  0
  -10.6303  -37.0974   25.8519 H   0  0  0  0  0  0  0  0  0  0  0  0
   -7.0730  -37.1833   22.5357 H   0  0  0  0  0  0  0  0  0  0  0  0
  -10.3662  -32.9656   23.1186 H   0  0  0  0  0  0  0  0  0  0  0  0
  1  2  1  0
  2  3  1  0
  2  4  1  0
  4  5  1  0
  5  6  1  0
  6  7  2  0
  7  8  1  0
  8  9  2  0
  9 10  1  0
 10 11  2  0
 11 12  1  0
 12 13  2  0
  7 14  1  0
 14 15  2  0
 15 16  1  0
 16 17  2  0
 17 18  1  0
 18 19  2  0
 19 20  1  0
 20 21  2  0
 21 22  1  0
 22 23  1  0
 23 24  2  0
 15  5  1  0
 24 16  1  0
 13  8  1  0
 23 19  1  0
  2 25  1  0
  4 26  1  0
  4 27  1  0
  9 28  1  0
 10 29  1  0
 11 30  1  0
 13 31  1  0
 17 32  1  0
 18 33  1  0
 21 34  1  0
 24 35  1  0
M  END
>  <Energy>  (1303) 
70.683891942618558

>  <compound_id>  (1303) 
6710

>  <target_id>  (1303) 
1

>  <reference_id>  (1303) 
82

>  <inspiration_ids>  (1303) 
[68, 82]

>  <energy_score>  (1303) 
-57.15235575918223

>  <distance_score>  (1303) 
4.065340950307495

>  <path>  (1303) 
/opt/xchem-fragalysis-2/maxwin/BulkDock/SCRATCH/511018/C6710-P82/C6710-P82.minimised.mol

>  <scratch_subdir>  (1303) 
/opt/xchem-fragalysis-2/maxwin/BulkDock/SCRATCH/511018/C6710-P82

>  <fragmenstein_runtime>  (1303) 
1.872706413269043

>  <fragmenstein_outcome>  (1303) 
too moved

>  <fragmenstein_mode>  (1303) 
expansion

>  <fragmenstein_error>  (1303) 


$$$$
C6711-P68
     RDKit          3D

 41 43  0  0  0  0  0  0  0  0999 V2000
   -9.9111  -29.2408   27.4663 C   0  0  0  0  0  0  0  0  0  0  0  0
  -11.3582  -29.0506   27.1478 C   0  0  0  0  0  0  0  0  0  0  0  0
  -11.3784  -27.7432   26.0216 C   0  0  0  0  0  0  0  0  0  0  0  0
  -11.2757  -26.3824   26.3100 N   0  0  0  0  0  0  0  0  0  0  0  0
  -12.2251  -25.3306   26.1933 C   0  0  0  0  0  0  0  0  0  0  0  0
  -13.3847  -25.3526   25.8922 O   0  0  0  0  0  0  0  0  0  0  0  0
  -11.6054  -23.9791   26.4766 C   0  0  0  0  0  0  0  0  0  0  0  0
  -10.6206  -23.7589   27.4435 C   0  0  0  0  0  0  0  0  0  0  0  0
  -10.8178  -22.6708   28.2667 C   0  0  0  0  0  0  0  0  0  0  0  0
  -11.7141  -21.7435   27.8933 C   0  0  0  0  0  0  0  0  0  0  0  0
  -12.2108  -21.7097   26.6547 N   0  0  0  0  0  0  0  0  0  0  0  0
  -12.2907  -22.8837   26.0150 C   0  0  0  0  0  0  0  0  0  0  0  0
  -12.5808  -30.5270   26.4774 N   0  0  0  0  0  0  0  0  0  0  0  0
  -12.2826  -31.9749   25.9171 C   0  0  0  0  0  0  0  0  0  0  0  0
  -14.0035  -30.8955   26.7995 C   0  0  0  0  0  0  0  0  0  0  0  0
  -14.3474  -31.6961   27.8104 N   0  0  0  0  0  0  0  0  0  0  0  0
  -15.0027  -32.8484   27.3806 C   0  0  0  0  0  0  0  0  0  0  0  0
  -15.1362  -34.0578   28.0852 C   0  0  0  0  0  0  0  0  0  0  0  0
  -15.6065  -35.1929   27.4147 C   0  0  0  0  0  0  0  0  0  0  0  0
  -15.9997  -35.1175   26.0803 C   0  0  0  0  0  0  0  0  0  0  0  0
  -15.9686  -33.9020   25.3934 C   0  0  0  0  0  0  0  0  0  0  0  0
  -15.4620  -32.7888   26.0755 C   0  0  0  0  0  0  0  0  0  0  0  0
  -15.3141  -31.1585   25.5915 S   0  0  0  0  0  0  0  0  0  0  0  0
   -9.7087  -30.2527   27.7390 H   0  0  0  0  0  0  0  0  0  0  0  0
   -9.5476  -28.5325   28.2090 H   0  0  0  0  0  0  0  0  0  0  0  0
   -9.2788  -28.9768   26.6848 H   0  0  0  0  0  0  0  0  0  0  0  0
  -11.5581  -28.5677   28.1247 H   0  0  0  0  0  0  0  0  0  0  0  0
  -10.5090  -27.8296   25.3782 H   0  0  0  0  0  0  0  0  0  0  0  0
  -12.2953  -27.8018   25.4476 H   0  0  0  0  0  0  0  0  0  0  0  0
  -10.4105  -26.0048   26.6654 H   0  0  0  0  0  0  0  0  0  0  0  0
   -9.9244  -24.5105   27.7825 H   0  0  0  0  0  0  0  0  0  0  0  0
  -10.4204  -22.5487   29.2398 H   0  0  0  0  0  0  0  0  0  0  0  0
  -12.0974  -21.0385   28.6193 H   0  0  0  0  0  0  0  0  0  0  0  0
  -13.0284  -22.9210   25.2222 H   0  0  0  0  0  0  0  0  0  0  0  0
  -12.7925  -32.7865   26.4329 H   0  0  0  0  0  0  0  0  0  0  0  0
  -11.2784  -32.3401   25.8158 H   0  0  0  0  0  0  0  0  0  0  0  0
  -12.7160  -32.1300   24.9188 H   0  0  0  0  0  0  0  0  0  0  0  0
  -14.8134  -34.1098   29.1212 H   0  0  0  0  0  0  0  0  0  0  0  0
  -15.6740  -36.1387   27.9478 H   0  0  0  0  0  0  0  0  0  0  0  0
  -16.3758  -36.0073   25.5790 H   0  0  0  0  0  0  0  0  0  0  0  0
  -16.3206  -33.8256   24.3697 H   0  0  0  0  0  0  0  0  0  0  0  0
  1  2  1  0
  2  3  1  0
  3  4  1  0
  4  5  1  0
  5  6  2  0
  5  7  1  0
  7  8  2  0
  8  9  1  0
  9 10  2  0
 10 11  1  0
 11 12  2  0
  2 13  1  0
 13 14  1  0
 13 15  1  0
 15 16  2  0
 16 17  1  0
 17 18  2  0
 18 19  1  0
 19 20  2  0
 20 21  1  0
 21 22  2  0
 22 23  1  0
 12  7  1  0
 23 15  1  0
 22 17  1  0
  1 24  1  0
  1 25  1  0
  1 26  1  0
  2 27  1  0
  3 28  1  0
  3 29  1  0
  4 30  1  0
  8 31  1  0
  9 32  1  0
 10 33  1  0
 12 34  1  0
 14 35  1  0
 14 36  1  0
 14 37  1  0
 18 38  1  0
 19 39  1  0
 20 40  1  0
 21 41  1  0
M  END
>  <Energy>  (1304) 
288.6537779865846

>  <compound_id>  (1304) 
6711

>  <target_id>  (1304) 
1

>  <reference_id>  (1304) 
68

>  <inspiration_ids>  (1304) 
[68, 82]

>  <energy_score>  (1304) 
176.30133016917262

>  <distance_score>  (1304) 
6.574044606852607

>  <path>  (1304) 
/opt/xchem-fragalysis-2/maxwin/BulkDock/SCRATCH/511018/C6711-P68/C6711-P68.minimised.mol

>  <scratch_subdir>  (1304) 
/opt/xchem-fragalysis-2/maxwin/BulkDock/SCRATCH/511018/C6711-P68

>  <fragmenstein_runtime>  (1304) 
14.753557682037354

>  <fragmenstein_outcome>  (1304) 
too moved

>  <fragmenstein_mode>  (1304) 
expansion

>  <fragmenstein_error>  (1304) 


$$$$
C6711-P82
     RDKit          3D

 41 43  0  0  0  0  0  0  0  0999 V2000
   -6.8502  -30.0750   23.2759 C   0  0  0  0  0  0  0  0  0  0  0  0
   -8.3067  -30.5554   23.5192 C   0  0  0  0  0  0  0  0  0  0  0  0
   -8.8782  -30.0378   25.1317 C   0  0  0  0  0  0  0  0  0  0  0  0
   -9.8386  -28.8601   25.5128 N   0  0  0  0  0  0  0  0  0  0  0  0
  -11.1650  -28.8644   26.1378 C   0  0  0  0  0  0  0  0  0  0  0  0
  -11.8849  -29.7776   26.4420 O   0  0  0  0  0  0  0  0  0  0  0  0
  -11.6514  -27.5103   26.5517 C   0  0  0  0  0  0  0  0  0  0  0  0
  -11.8086  -26.4431   25.6921 C   0  0  0  0  0  0  0  0  0  0  0  0
  -12.0663  -25.1664   26.2076 C   0  0  0  0  0  0  0  0  0  0  0  0
  -12.1755  -25.0102   27.5795 C   0  0  0  0  0  0  0  0  0  0  0  0
  -12.1049  -26.0440   28.4343 N   0  0  0  0  0  0  0  0  0  0  0  0
  -11.8810  -27.2647   27.8990 C   0  0  0  0  0  0  0  0  0  0  0  0
   -8.2714  -32.0845   23.1591 N   0  0  0  0  0  0  0  0  0  0  0  0
   -7.3047  -32.5076   22.1092 C   0  0  0  0  0  0  0  0  0  0  0  0
   -9.3276  -32.9498   23.2283 C   0  0  0  0  0  0  0  0  0  0  0  0
   -9.8145  -33.4378   24.3435 N   0  0  0  0  0  0  0  0  0  0  0  0
  -10.6407  -34.5198   24.0934 C   0  0  0  0  0  0  0  0  0  0  0  0
  -11.2073  -35.3730   25.0605 C   0  0  0  0  0  0  0  0  0  0  0  0
  -12.0307  -36.4296   24.6638 C   0  0  0  0  0  0  0  0  0  0  0  0
  -12.2948  -36.6466   23.3164 C   0  0  0  0  0  0  0  0  0  0  0  0
  -11.7408  -35.8203   22.3361 C   0  0  0  0  0  0  0  0  0  0  0  0
  -10.9120  -34.7668   22.7511 C   0  0  0  0  0  0  0  0  0  0  0  0
  -10.0855  -33.6119   21.7990 S   0  0  0  0  0  0  0  0  0  0  0  0
   -6.0820  -30.8314   23.4113 H   0  0  0  0  0  0  0  0  0  0  0  0
   -6.5499  -29.3322   24.0037 H   0  0  0  0  0  0  0  0  0  0  0  0
   -6.7257  -29.7268   22.2454 H   0  0  0  0  0  0  0  0  0  0  0  0
   -8.9154  -30.0440   22.7676 H   0  0  0  0  0  0  0  0  0  0  0  0
   -9.2146  -30.9149   25.6953 H   0  0  0  0  0  0  0  0  0  0  0  0
   -8.0038  -29.5883   25.5970 H   0  0  0  0  0  0  0  0  0  0  0  0
   -9.4934  -27.9159   25.4800 H   0  0  0  0  0  0  0  0  0  0  0  0
  -11.7543  -26.6305   24.6298 H   0  0  0  0  0  0  0  0  0  0  0  0
  -12.1804  -24.3074   25.5533 H   0  0  0  0  0  0  0  0  0  0  0  0
  -12.3510  -24.0377   28.0319 H   0  0  0  0  0  0  0  0  0  0  0  0
  -11.8571  -28.0650   28.6266 H   0  0  0  0  0  0  0  0  0  0  0  0
   -7.2950  -33.6003   21.9905 H   0  0  0  0  0  0  0  0  0  0  0  0
   -6.2612  -32.2901   22.3282 H   0  0  0  0  0  0  0  0  0  0  0  0
   -7.5538  -32.0668   21.1439 H   0  0  0  0  0  0  0  0  0  0  0  0
  -10.9950  -35.2113   26.1105 H   0  0  0  0  0  0  0  0  0  0  0  0
  -12.4648  -37.0828   25.4172 H   0  0  0  0  0  0  0  0  0  0  0  0
  -12.9378  -37.4729   23.0203 H   0  0  0  0  0  0  0  0  0  0  0  0
  -11.9409  -35.9951   21.2837 H   0  0  0  0  0  0  0  0  0  0  0  0
  1  2  1  0
  2  3  1  0
  3  4  1  0
  4  5  1  0
  5  6  2  0
  5  7  1  0
  7  8  2  0
  8  9  1  0
  9 10  2  0
 10 11  1  0
 11 12  2  0
  2 13  1  0
 13 14  1  0
 13 15  1  0
 15 16  2  0
 16 17  1  0
 17 18  2  0
 18 19  1  0
 19 20  2  0
 20 21  1  0
 21 22  2  0
 22 23  1  0
 12  7  1  0
 23 15  1  0
 22 17  1  0
  1 24  1  0
  1 25  1  0
  1 26  1  0
  2 27  1  0
  3 28  1  0
  3 29  1  0
  4 30  1  0
  8 31  1  0
  9 32  1  0
 10 33  1  0
 12 34  1  0
 14 35  1  0
 14 36  1  0
 14 37  1  0
 18 38  1  0
 19 39  1  0
 20 40  1  0
 21 41  1  0
M  END
>  <Energy>  (1305) 
106.48580924798722

>  <compound_id>  (1305) 
6711

>  <target_id>  (1305) 
1

>  <reference_id>  (1305) 
82

>  <inspiration_ids>  (1305) 
[68, 82]

>  <energy_score>  (1305) 
-5.866638569419479

>  <distance_score>  (1305) 
4.771202815555495

>  <path>  (1305) 
/opt/xchem-fragalysis-2/maxwin/BulkDock/SCRATCH/511018/C6711-P82/C6711-P82.minimised.mol

>  <scratch_subdir>  (1305) 
/opt/xchem-fragalysis-2/maxwin/BulkDock/SCRATCH/511018/C6711-P82

>  <fragmenstein_runtime>  (1305) 
10.879020929336548

>  <fragmenstein_outcome>  (1305) 
too moved

>  <fragmenstein_mode>  (1305) 
expansion

>  <fragmenstein_error>  (1305) 


$$$$
C6712-P68
     RDKit          3D

 41 43  0  0  0  0  0  0  0  0999 V2000
   -8.7162  -28.8300   28.7800 C   0  0  0  0  0  0  0  0  0  0  0  0
   -9.5828  -30.1381   27.7372 C   0  0  0  0  0  0  0  0  0  0  0  0
  -10.6638  -28.8049   27.4549 C   0  0  0  0  0  0  0  0  0  0  0  0
  -10.5489  -27.3919   27.0682 N   0  0  0  0  0  0  0  0  0  0  0  0
  -11.4048  -26.5568   26.2413 C   0  0  0  0  0  0  0  0  0  0  0  0
  -12.3750  -26.8315   25.5985 O   0  0  0  0  0  0  0  0  0  0  0  0
  -11.0172  -25.0420   26.3205 C   0  0  0  0  0  0  0  0  0  0  0  0
  -12.0078  -24.0653   26.2855 C   0  0  0  0  0  0  0  0  0  0  0  0
  -11.7987  -22.8308   26.8948 C   0  0  0  0  0  0  0  0  0  0  0  0
  -10.9047  -22.7721   27.9271 C   0  0  0  0  0  0  0  0  0  0  0  0
   -9.8727  -23.6189   27.9452 N   0  0  0  0  0  0  0  0  0  0  0  0
   -9.9206  -24.5902   26.9981 C   0  0  0  0  0  0  0  0  0  0  0  0
   -9.5694  -32.0731   28.3149 N   0  0  0  0  0  0  0  0  0  0  0  0
   -9.4748  -32.4102   30.0224 C   0  0  0  0  0  0  0  0  0  0  0  0
   -9.1794  -33.6334   27.4663 C   0  0  0  0  0  0  0  0  0  0  0  0
   -9.1014  -34.9589   27.7083 N   0  0  0  0  0  0  0  0  0  0  0  0
   -9.4229  -35.8630   26.5572 C   0  0  0  0  0  0  0  0  0  0  0  0
   -9.8485  -37.2199   26.5437 C   0  0  0  0  0  0  0  0  0  0  0  0
  -10.2477  -37.8854   25.3693 C   0  0  0  0  0  0  0  0  0  0  0  0
  -10.2105  -37.2344   24.1541 C   0  0  0  0  0  0  0  0  0  0  0  0
   -9.7310  -35.9395   24.1130 C   0  0  0  0  0  0  0  0  0  0  0  0
   -9.6049  -35.3236   22.9286 F   0  0  0  0  0  0  0  0  0  0  0  0
   -9.3461  -35.3094   25.3053 C   0  0  0  0  0  0  0  0  0  0  0  0
   -8.5008  -33.8962   25.4800 S   0  0  0  0  0  0  0  0  0  0  0  0
   -8.2735  -29.2317   29.7111 H   0  0  0  0  0  0  0  0  0  0  0  0
   -7.8083  -28.5322   28.2505 H   0  0  0  0  0  0  0  0  0  0  0  0
   -9.3882  -28.0823   29.2082 H   0  0  0  0  0  0  0  0  0  0  0  0
   -9.1454  -30.1732   28.6284 H   0  0  0  0  0  0  0  0  0  0  0  0
  -11.5064  -29.2003   27.0544 H   0  0  0  0  0  0  0  0  0  0  0  0
  -11.1785  -28.4798   28.3457 H   0  0  0  0  0  0  0  0  0  0  0  0
   -9.8774  -26.8152   27.5272 H   0  0  0  0  0  0  0  0  0  0  0  0
  -12.9726  -24.2564   25.8233 H   0  0  0  0  0  0  0  0  0  0  0  0
  -12.4521  -21.9921   26.7118 H   0  0  0  0  0  0  0  0  0  0  0  0
  -10.9018  -21.9498   28.6319 H   0  0  0  0  0  0  0  0  0  0  0  0
   -8.9714  -24.8889   26.6506 H   0  0  0  0  0  0  0  0  0  0  0  0
  -10.4553  -32.5585   30.4816 H   0  0  0  0  0  0  0  0  0  0  0  0
   -8.6705  -33.1499   30.1664 H   0  0  0  0  0  0  0  0  0  0  0  0
   -9.3034  -31.6474   30.8156 H   0  0  0  0  0  0  0  0  0  0  0  0
   -9.9145  -37.8037   27.4426 H   0  0  0  0  0  0  0  0  0  0  0  0
  -10.5772  -38.9207   25.4259 H   0  0  0  0  0  0  0  0  0  0  0  0
  -10.5025  -37.7338   23.2365 H   0  0  0  0  0  0  0  0  0  0  0  0
  1  2  1  0
  2  3  1  0
  3  4  1  0
  4  5  1  0
  5  6  2  0
  5  7  1  0
  7  8  2  0
  8  9  1  0
  9 10  2  0
 10 11  1  0
 11 12  2  0
  2 13  1  0
 13 14  1  0
 13 15  1  0
 15 16  2  0
 16 17  1  0
 17 18  2  0
 18 19  1  0
 19 20  2  0
 20 21  1  0
 21 22  1  0
 21 23  2  0
 23 24  1  0
 12  7  1  0
 24 15  1  0
 23 17  1  0
  1 25  1  0
  1 26  1  0
  1 27  1  0
  2 28  1  0
  3 29  1  0
  3 30  1  0
  4 31  1  0
  8 32  1  0
  9 33  1  0
 10 34  1  0
 12 35  1  0
 14 36  1  0
 14 37  1  0
 14 38  1  0
 18 39  1  0
 19 40  1  0
 20 41  1  0
M  END
>  <Energy>  (1306) 
534.49692743730361

>  <compound_id>  (1306) 
6712

>  <target_id>  (1306) 
1

>  <reference_id>  (1306) 
68

>  <inspiration_ids>  (1306) 
[68, 82]

>  <energy_score>  (1306) 
447.6459598800175

>  <distance_score>  (1306) 
4.3312611322454275

>  <path>  (1306) 
/opt/xchem-fragalysis-2/maxwin/BulkDock/SCRATCH/511018/C6712-P68/C6712-P68.minimised.mol

>  <scratch_subdir>  (1306) 
/opt/xchem-fragalysis-2/maxwin/BulkDock/SCRATCH/511018/C6712-P68

>  <fragmenstein_runtime>  (1306) 
20.349741458892822

>  <fragmenstein_outcome>  (1306) 
too moved

>  <fragmenstein_mode>  (1306) 
expansion

>  <fragmenstein_error>  (1306) 


$$$$
C6712-P82
     RDKit          3D

 41 43  0  0  0  0  0  0  0  0999 V2000
  -10.8009  -31.0010   26.7016 C   0  0  0  0  0  0  0  0  0  0  0  0
  -12.2624  -31.3663   26.4914 C   0  0  0  0  0  0  0  0  0  0  0  0
  -13.0815  -29.9541   26.4752 C   0  0  0  0  0  0  0  0  0  0  0  0
  -12.5780  -28.8499   27.3873 N   0  0  0  0  0  0  0  0  0  0  0  0
  -12.7741  -27.2918   27.3073 C   0  0  0  0  0  0  0  0  0  0  0  0
  -13.4176  -26.6441   26.5688 O   0  0  0  0  0  0  0  0  0  0  0  0
  -12.0407  -26.4431   28.4063 C   0  0  0  0  0  0  0  0  0  0  0  0
  -12.1380  -25.0416   28.4243 C   0  0  0  0  0  0  0  0  0  0  0  0
  -11.6921  -24.2709   29.5231 C   0  0  0  0  0  0  0  0  0  0  0  0
  -11.0937  -24.9066   30.5898 C   0  0  0  0  0  0  0  0  0  0  0  0
  -10.9132  -26.2309   30.6046 N   0  0  0  0  0  0  0  0  0  0  0  0
  -11.4280  -26.9331   29.5465 C   0  0  0  0  0  0  0  0  0  0  0  0
  -12.4328  -32.3671   25.2970 N   0  0  0  0  0  0  0  0  0  0  0  0
  -13.7982  -32.9168   25.2704 C   0  0  0  0  0  0  0  0  0  0  0  0
  -11.4727  -33.3998   24.9660 C   0  0  0  0  0  0  0  0  0  0  0  0
  -11.3281  -34.5588   25.5850 N   0  0  0  0  0  0  0  0  0  0  0  0
  -10.4406  -35.4116   24.9348 C   0  0  0  0  0  0  0  0  0  0  0  0
  -10.0637  -36.6887   25.3788 C   0  0  0  0  0  0  0  0  0  0  0  0
   -9.2135  -37.4581   24.5859 C   0  0  0  0  0  0  0  0  0  0  0  0
   -8.7410  -36.9734   23.3703 C   0  0  0  0  0  0  0  0  0  0  0  0
   -9.0898  -35.7070   22.9326 C   0  0  0  0  0  0  0  0  0  0  0  0
   -8.6286  -35.2610   21.7580 F   0  0  0  0  0  0  0  0  0  0  0  0
   -9.9295  -34.9414   23.7352 C   0  0  0  0  0  0  0  0  0  0  0  0
  -10.5109  -33.3778   23.4887 S   0  0  0  0  0  0  0  0  0  0  0  0
  -10.5913  -29.9500   26.4942 H   0  0  0  0  0  0  0  0  0  0  0  0
  -10.5564  -31.1537   27.7293 H   0  0  0  0  0  0  0  0  0  0  0  0
  -10.0916  -31.5334   26.0757 H   0  0  0  0  0  0  0  0  0  0  0  0
  -12.6851  -31.8541   27.3674 H   0  0  0  0  0  0  0  0  0  0  0  0
  -14.1185  -30.1452   26.7727 H   0  0  0  0  0  0  0  0  0  0  0  0
  -13.1215  -29.5135   25.4806 H   0  0  0  0  0  0  0  0  0  0  0  0
  -11.8948  -29.0667   28.0886 H   0  0  0  0  0  0  0  0  0  0  0  0
  -12.6247  -24.5245   27.5987 H   0  0  0  0  0  0  0  0  0  0  0  0
  -11.8363  -23.1954   29.5258 H   0  0  0  0  0  0  0  0  0  0  0  0
  -10.7441  -24.3653   31.4610 H   0  0  0  0  0  0  0  0  0  0  0  0
  -11.4234  -27.9799   29.7558 H   0  0  0  0  0  0  0  0  0  0  0  0
  -13.9803  -33.5666   26.1336 H   0  0  0  0  0  0  0  0  0  0  0  0
  -14.5340  -32.1064   25.2842 H   0  0  0  0  0  0  0  0  0  0  0  0
  -13.9729  -33.4900   24.3524 H   0  0  0  0  0  0  0  0  0  0  0  0
  -10.4522  -37.0691   26.3183 H   0  0  0  0  0  0  0  0  0  0  0  0
   -8.9268  -38.4540   24.9164 H   0  0  0  0  0  0  0  0  0  0  0  0
   -8.0859  -37.5813   22.7519 H   0  0  0  0  0  0  0  0  0  0  0  0
  1  2  1  0
  2  3  1  0
  3  4  1  0
  4  5  1  0
  5  6  2  0
  5  7  1  0
  7  8  2  0
  8  9  1  0
  9 10  2  0
 10 11  1  0
 11 12  2  0
  2 13  1  0
 13 14  1  0
 13 15  1  0
 15 16  2  0
 16 17  1  0
 17 18  2  0
 18 19  1  0
 19 20  2  0
 20 21  1  0
 21 22  1  0
 21 23  2  0
 23 24  1  0
 12  7  1  0
 24 15  1  0
 23 17  1  0
  1 25  1  0
  1 26  1  0
  1 27  1  0
  2 28  1  0
  3 29  1  0
  3 30  1  0
  4 31  1  0
  8 32  1  0
  9 33  1  0
 10 34  1  0
 12 35  1  0
 14 36  1  0
 14 37  1  0
 14 38  1  0
 18 39  1  0
 19 40  1  0
 20 41  1  0
M  END
>  <Energy>  (1307) 
87.125824848380446

>  <compound_id>  (1307) 
6712

>  <target_id>  (1307) 
1

>  <reference_id>  (1307) 
82

>  <inspiration_ids>  (1307) 
[68, 82]

>  <energy_score>  (1307) 
10.174150977744375

>  <distance_score>  (1307) 
3.7971574998322595

>  <path>  (1307) 
/opt/xchem-fragalysis-2/maxwin/BulkDock/SCRATCH/511018/C6712-P82/C6712-P82.minimised.mol

>  <scratch_subdir>  (1307) 
/opt/xchem-fragalysis-2/maxwin/BulkDock/SCRATCH/511018/C6712-P82

>  <fragmenstein_runtime>  (1307) 
8.230925559997559

>  <fragmenstein_outcome>  (1307) 
too moved

>  <fragmenstein_mode>  (1307) 
expansion

>  <fragmenstein_error>  (1307) 


$$$$
C6713-P68
     RDKit          3D

 44 46  0  0  0  0  0  0  0  0999 V2000
  -12.2673  -34.3651   19.8084 C   0  0  0  0  0  0  0  0  0  0  0  0
  -12.8052  -34.9986   21.0584 C   0  0  0  0  0  0  0  0  0  0  0  0
  -13.3314  -36.3016   21.0037 C   0  0  0  0  0  0  0  0  0  0  0  0
  -13.8804  -36.9196   22.1229 C   0  0  0  0  0  0  0  0  0  0  0  0
  -13.9420  -36.2456   23.3404 C   0  0  0  0  0  0  0  0  0  0  0  0
  -13.4250  -34.9418   23.4380 C   0  0  0  0  0  0  0  0  0  0  0  0
  -13.3877  -34.1915   24.5984 N   0  0  0  0  0  0  0  0  0  0  0  0
  -12.6308  -33.1293   24.4316 C   0  0  0  0  0  0  0  0  0  0  0  0
  -11.7666  -32.7421   25.4377 N   0  0  0  0  0  0  0  0  0  0  0  0
  -10.6050  -33.6904   25.3137 C   0  0  0  0  0  0  0  0  0  0  0  0
  -11.8848  -31.1610   26.3243 C   0  0  0  0  0  0  0  0  0  0  0  0
  -13.4187  -31.2487   26.6356 C   0  0  0  0  0  0  0  0  0  0  0  0
  -10.3833  -29.8417   27.0140 C   0  0  0  0  0  0  0  0  0  0  0  0
   -9.8286  -29.0984   28.0551 N   0  0  0  0  0  0  0  0  0  0  0  0
   -9.9867  -27.7844   28.4116 C   0  0  0  0  0  0  0  0  0  0  0  0
  -10.5586  -26.9252   27.8826 O   0  0  0  0  0  0  0  0  0  0  0  0
   -9.2289  -27.4782   30.1090 C   0  0  0  0  0  0  0  0  0  0  0  0
   -9.6144  -26.9740   31.3887 C   0  0  0  0  0  0  0  0  0  0  0  0
  -11.0997  -27.2931   32.3741 C   0  0  0  0  0  0  0  0  0  0  0  0
  -11.8789  -28.3277   32.3975 C   0  0  0  0  0  0  0  0  0  0  0  0
  -11.1439  -28.9764   31.6354 N   0  0  0  0  0  0  0  0  0  0  0  0
   -9.9441  -28.3950   30.6787 C   0  0  0  0  0  0  0  0  0  0  0  0
  -12.2956  -32.7834   22.7546 S   0  0  0  0  0  0  0  0  0  0  0  0
  -12.8629  -34.3461   22.3085 C   0  0  0  0  0  0  0  0  0  0  0  0
  -13.0698  -33.8372   19.2841 H   0  0  0  0  0  0  0  0  0  0  0  0
  -11.4671  -33.6560   20.0363 H   0  0  0  0  0  0  0  0  0  0  0  0
  -11.8508  -35.1239   19.1381 H   0  0  0  0  0  0  0  0  0  0  0  0
  -13.3175  -36.8473   20.0606 H   0  0  0  0  0  0  0  0  0  0  0  0
  -14.2772  -37.9291   22.0452 H   0  0  0  0  0  0  0  0  0  0  0  0
  -14.3737  -36.7185   24.2164 H   0  0  0  0  0  0  0  0  0  0  0  0
  -10.9163  -34.6629   24.9018 H   0  0  0  0  0  0  0  0  0  0  0  0
   -9.8604  -33.3161   24.6001 H   0  0  0  0  0  0  0  0  0  0  0  0
  -10.1478  -34.0085   26.2521 H   0  0  0  0  0  0  0  0  0  0  0  0
  -11.1420  -31.6549   26.7617 H   0  0  0  0  0  0  0  0  0  0  0  0
  -13.9735  -30.3524   26.3921 H   0  0  0  0  0  0  0  0  0  0  0  0
  -13.7181  -31.6181   27.6102 H   0  0  0  0  0  0  0  0  0  0  0  0
  -13.9341  -31.9659   25.9927 H   0  0  0  0  0  0  0  0  0  0  0  0
  -10.1558  -28.9207   26.4287 H   0  0  0  0  0  0  0  0  0  0  0  0
   -9.7903  -30.6065   27.4672 H   0  0  0  0  0  0  0  0  0  0  0  0
   -9.2043  -29.5305   28.6945 H   0  0  0  0  0  0  0  0  0  0  0  0
   -9.0964  -26.0468   31.7540 H   0  0  0  0  0  0  0  0  0  0  0  0
  -11.1634  -26.6261   33.1738 H   0  0  0  0  0  0  0  0  0  0  0  0
  -12.6697  -28.6671   33.0217 H   0  0  0  0  0  0  0  0  0  0  0  0
   -9.2059  -29.2134   30.3391 H   0  0  0  0  0  0  0  0  0  0  0  0
  1  2  1  0
  2  3  2  0
  3  4  1  0
  4  5  2  0
  5  6  1  0
  6  7  1  0
  7  8  2  0
  8  9  1  0
  9 10  1  0
  9 11  1  0
 11 12  1  0
 11 13  1  0
 13 14  1  0
 14 15  1  0
 15 16  2  0
 15 17  1  0
 17 18  2  0
 18 19  1  0
 19 20  2  0
 20 21  1  0
 21 22  2  0
  8 23  1  0
 23 24  1  0
 24  2  1  0
 24  6  2  0
 22 17  1  0
  1 25  1  0
  1 26  1  0
  1 27  1  0
  3 28  1  0
  4 29  1  0
  5 30  1  0
 10 31  1  0
 10 32  1  0
 10 33  1  0
 11 34  1  0
 12 35  1  0
 12 36  1  0
 12 37  1  0
 13 38  1  0
 13 39  1  0
 14 40  1  0
 18 41  1  0
 19 42  1  0
 20 43  1  0
 22 44  1  0
M  END
>  <Energy>  (1308) 
600.69636635453708

>  <compound_id>  (1308) 
6713

>  <target_id>  (1308) 
1

>  <reference_id>  (1308) 
68

>  <inspiration_ids>  (1308) 
[68, 82]

>  <energy_score>  (1308) 
490.1528780008973

>  <distance_score>  (1308) 
4.749474142982475

>  <path>  (1308) 
/opt/xchem-fragalysis-2/maxwin/BulkDock/SCRATCH/511018/C6713-P68/C6713-P68.minimised.mol

>  <scratch_subdir>  (1308) 
/opt/xchem-fragalysis-2/maxwin/BulkDock/SCRATCH/511018/C6713-P68

>  <fragmenstein_runtime>  (1308) 
11.738634586334229

>  <fragmenstein_outcome>  (1308) 
too moved

>  <fragmenstein_mode>  (1308) 
expansion

>  <fragmenstein_error>  (1308) 


$$$$
C6713-P82
     RDKit          3D

 44 46  0  0  0  0  0  0  0  0999 V2000
   -8.0520  -35.2644   21.7039 C   0  0  0  0  0  0  0  0  0  0  0  0
   -8.6664  -35.6866   23.0075 C   0  0  0  0  0  0  0  0  0  0  0  0
   -8.2290  -36.8584   23.6320 C   0  0  0  0  0  0  0  0  0  0  0  0
   -8.7471  -37.2886   24.8508 C   0  0  0  0  0  0  0  0  0  0  0  0
   -9.7424  -36.5668   25.4949 C   0  0  0  0  0  0  0  0  0  0  0  0
  -10.2365  -35.4062   24.8860 C   0  0  0  0  0  0  0  0  0  0  0  0
  -11.2535  -34.6122   25.4084 N   0  0  0  0  0  0  0  0  0  0  0  0
  -11.5510  -33.6174   24.6040 C   0  0  0  0  0  0  0  0  0  0  0  0
  -12.6865  -32.7743   24.6711 N   0  0  0  0  0  0  0  0  0  0  0  0
  -13.8070  -33.4329   23.9537 C   0  0  0  0  0  0  0  0  0  0  0  0
  -13.1743  -32.0521   25.9431 C   0  0  0  0  0  0  0  0  0  0  0  0
  -14.4780  -31.2588   25.7717 C   0  0  0  0  0  0  0  0  0  0  0  0
  -12.1605  -31.1474   26.7395 C   0  0  0  0  0  0  0  0  0  0  0  0
  -12.0232  -29.6842   26.9916 N   0  0  0  0  0  0  0  0  0  0  0  0
  -12.5137  -28.8119   28.1915 C   0  0  0  0  0  0  0  0  0  0  0  0
  -13.1668  -29.0998   29.1228 O   0  0  0  0  0  0  0  0  0  0  0  0
  -12.0260  -27.3534   28.3195 C   0  0  0  0  0  0  0  0  0  0  0  0
  -12.4228  -26.2405   27.6024 C   0  0  0  0  0  0  0  0  0  0  0  0
  -12.1474  -24.9480   28.1186 C   0  0  0  0  0  0  0  0  0  0  0  0
  -11.4819  -24.7828   29.3289 C   0  0  0  0  0  0  0  0  0  0  0  0
  -11.0270  -25.8150   30.0348 N   0  0  0  0  0  0  0  0  0  0  0  0
  -11.3425  -27.0392   29.5294 C   0  0  0  0  0  0  0  0  0  0  0  0
  -10.5282  -33.6033   23.1725 S   0  0  0  0  0  0  0  0  0  0  0  0
   -9.7013  -35.0020   23.6658 C   0  0  0  0  0  0  0  0  0  0  0  0
   -8.1535  -34.1882   21.5363 H   0  0  0  0  0  0  0  0  0  0  0  0
   -6.9802  -35.4904   21.6933 H   0  0  0  0  0  0  0  0  0  0  0  0
   -8.5327  -35.7963   20.8771 H   0  0  0  0  0  0  0  0  0  0  0  0
   -7.4445  -37.4514   23.1618 H   0  0  0  0  0  0  0  0  0  0  0  0
   -8.3672  -38.2008   25.3048 H   0  0  0  0  0  0  0  0  0  0  0  0
  -10.1513  -36.8946   26.4449 H   0  0  0  0  0  0  0  0  0  0  0  0
  -13.4684  -34.0300   23.0982 H   0  0  0  0  0  0  0  0  0  0  0  0
  -14.3646  -34.0945   24.6264 H   0  0  0  0  0  0  0  0  0  0  0  0
  -14.4859  -32.6814   23.5386 H   0  0  0  0  0  0  0  0  0  0  0  0
  -13.4415  -32.8808   26.6127 H   0  0  0  0  0  0  0  0  0  0  0  0
  -14.7996  -30.8487   26.7366 H   0  0  0  0  0  0  0  0  0  0  0  0
  -14.3734  -30.4183   25.0856 H   0  0  0  0  0  0  0  0  0  0  0  0
  -15.3020  -31.8863   25.4203 H   0  0  0  0  0  0  0  0  0  0  0  0
  -11.1418  -31.5235   26.6230 H   0  0  0  0  0  0  0  0  0  0  0  0
  -12.4916  -31.3890   27.7487 H   0  0  0  0  0  0  0  0  0  0  0  0
  -11.4036  -29.1330   26.4011 H   0  0  0  0  0  0  0  0  0  0  0  0
  -12.9995  -26.3436   26.6890 H   0  0  0  0  0  0  0  0  0  0  0  0
  -12.4855  -24.0671   27.5786 H   0  0  0  0  0  0  0  0  0  0  0  0
  -11.3047  -23.7970   29.7443 H   0  0  0  0  0  0  0  0  0  0  0  0
  -11.0550  -27.8166   30.2276 H   0  0  0  0  0  0  0  0  0  0  0  0
  1  2  1  0
  2  3  2  0
  3  4  1  0
  4  5  2  0
  5  6  1  0
  6  7  1  0
  7  8  2  0
  8  9  1  0
  9 10  1  0
  9 11  1  0
 11 12  1  0
 11 13  1  0
 13 14  1  0
 14 15  1  0
 15 16  2  0
 15 17  1  0
 17 18  2  0
 18 19  1  0
 19 20  2  0
 20 21  1  0
 21 22  2  0
  8 23  1  0
 23 24  1  0
 24  2  1  0
 24  6  2  0
 22 17  1  0
  1 25  1  0
  1 26  1  0
  1 27  1  0
  3 28  1  0
  4 29  1  0
  5 30  1  0
 10 31  1  0
 10 32  1  0
 10 33  1  0
 11 34  1  0
 12 35  1  0
 12 36  1  0
 12 37  1  0
 13 38  1  0
 13 39  1  0
 14 40  1  0
 18 41  1  0
 19 42  1  0
 20 43  1  0
 22 44  1  0
M  END
>  <Energy>  (1309) 
101.51250845280136

>  <compound_id>  (1309) 
6713

>  <target_id>  (1309) 
1

>  <reference_id>  (1309) 
82

>  <inspiration_ids>  (1309) 
[68, 82]

>  <energy_score>  (1309) 
-41.25481831584065

>  <distance_score>  (1309) 
4.269027956451899

>  <path>  (1309) 
/opt/xchem-fragalysis-2/maxwin/BulkDock/SCRATCH/511018/C6713-P82/C6713-P82.minimised.mol

>  <scratch_subdir>  (1309) 
/opt/xchem-fragalysis-2/maxwin/BulkDock/SCRATCH/511018/C6713-P82

>  <fragmenstein_runtime>  (1309) 
6.80767822265625

>  <fragmenstein_outcome>  (1309) 
too moved

>  <fragmenstein_mode>  (1309) 
expansion

>  <fragmenstein_error>  (1309) 


$$$$
C6714-P68
     RDKit          3D

 48 51  0  0  0  0  0  0  0  0999 V2000
   -9.5882  -32.3792   30.6901 C   0  0  0  0  0  0  0  0  0  0  0  0
   -9.2241  -32.0699   28.8630 C   0  0  0  0  0  0  0  0  0  0  0  0
   -8.5761  -30.0547   29.3257 C   0  0  0  0  0  0  0  0  0  0  0  0
   -8.9447  -28.9652   28.0014 N   0  0  0  0  0  0  0  0  0  0  0  0
  -10.1298  -28.6969   27.3421 C   0  0  0  0  0  0  0  0  0  0  0  0
  -11.1916  -29.0660   27.5506 O   0  0  0  0  0  0  0  0  0  0  0  0
  -10.1516  -27.6924   26.1534 C   0  0  0  0  0  0  0  0  0  0  0  0
  -10.4307  -26.1942   25.8501 C   0  0  0  0  0  0  0  0  0  0  0  0
  -10.7907  -26.7948   27.0460 C   0  0  0  0  0  0  0  0  0  0  0  0
   -9.9899  -26.4008   28.3457 C   0  0  0  0  0  0  0  0  0  0  0  0
   -9.4582  -27.2585   29.7255 C   0  0  0  0  0  0  0  0  0  0  0  0
   -8.4208  -26.5643   30.4731 C   0  0  0  0  0  0  0  0  0  0  0  0
   -8.3796  -25.2283   30.5431 C   0  0  0  0  0  0  0  0  0  0  0  0
   -8.9591  -24.5662   29.2723 N   0  0  0  0  0  0  0  0  0  0  0  0
   -9.6743  -25.0131   28.2620 C   0  0  0  0  0  0  0  0  0  0  0  0
   -8.9723  -33.6645   27.7251 N   0  0  0  0  0  0  0  0  0  0  0  0
   -7.9668  -33.6534   26.5357 C   0  0  0  0  0  0  0  0  0  0  0  0
   -9.7472  -34.5462   26.8644 C   0  0  0  0  0  0  0  0  0  0  0  0
   -9.5103  -35.8617   26.8618 N   0  0  0  0  0  0  0  0  0  0  0  0
   -9.9218  -36.5171   25.7094 C   0  0  0  0  0  0  0  0  0  0  0  0
   -9.7101  -37.8808   25.4318 C   0  0  0  0  0  0  0  0  0  0  0  0
  -10.1405  -38.4153   24.2139 C   0  0  0  0  0  0  0  0  0  0  0  0
  -10.7800  -37.6127   23.2754 C   0  0  0  0  0  0  0  0  0  0  0  0
  -11.0099  -36.2612   23.5343 C   0  0  0  0  0  0  0  0  0  0  0  0
  -10.5713  -35.7370   24.7624 C   0  0  0  0  0  0  0  0  0  0  0  0
  -10.7237  -34.1328   25.3353 S   0  0  0  0  0  0  0  0  0  0  0  0
   -8.9012  -33.1103   31.1588 H   0  0  0  0  0  0  0  0  0  0  0  0
   -9.4243  -31.5044   31.3362 H   0  0  0  0  0  0  0  0  0  0  0  0
  -10.6235  -32.5888   30.9482 H   0  0  0  0  0  0  0  0  0  0  0  0
  -10.0269  -31.7654   28.2362 H   0  0  0  0  0  0  0  0  0  0  0  0
   -8.9041  -29.6414   30.2299 H   0  0  0  0  0  0  0  0  0  0  0  0
   -7.5312  -29.6628   29.5140 H   0  0  0  0  0  0  0  0  0  0  0  0
   -8.2040  -28.5512   27.5120 H   0  0  0  0  0  0  0  0  0  0  0  0
  -10.6962  -28.0524   25.3289 H   0  0  0  0  0  0  0  0  0  0  0  0
  -11.3481  -25.9549   25.3615 H   0  0  0  0  0  0  0  0  0  0  0  0
   -9.6843  -25.4235   25.8260 H   0  0  0  0  0  0  0  0  0  0  0  0
  -11.8827  -26.9874   26.9716 H   0  0  0  0  0  0  0  0  0  0  0  0
   -9.7781  -28.1119   30.2252 H   0  0  0  0  0  0  0  0  0  0  0  0
   -7.3968  -26.8072   30.1029 H   0  0  0  0  0  0  0  0  0  0  0  0
   -8.7746  -24.7917   31.4803 H   0  0  0  0  0  0  0  0  0  0  0  0
   -9.9784  -24.2970   27.5150 H   0  0  0  0  0  0  0  0  0  0  0  0
   -7.9365  -34.5909   25.9573 H   0  0  0  0  0  0  0  0  0  0  0  0
   -8.1611  -33.1860   25.5556 H   0  0  0  0  0  0  0  0  0  0  0  0
   -7.0024  -33.3714   26.8963 H   0  0  0  0  0  0  0  0  0  0  0  0
   -9.1995  -38.5022   26.1629 H   0  0  0  0  0  0  0  0  0  0  0  0
   -9.9671  -39.4680   24.0025 H   0  0  0  0  0  0  0  0  0  0  0  0
  -11.1069  -38.0428   22.3311 H   0  0  0  0  0  0  0  0  0  0  0  0
  -11.5119  -35.6333   22.8046 H   0  0  0  0  0  0  0  0  0  0  0  0
  1  2  1  0
  2  3  1  0
  3  4  1  0
  4  5  1  0
  5  6  2  0
  5  7  1  0
  7  8  1  0
  8  9  1  0
  9 10  1  0
 10 11  2  0
 11 12  1  0
 12 13  2  0
 13 14  1  0
 14 15  2  0
  2 16  1  0
 16 17  1  0
 16 18  1  0
 18 19  2  0
 19 20  1  0
 20 21  2  0
 21 22  1  0
 22 23  2  0
 23 24  1  0
 24 25  2  0
 25 26  1  0
  9  7  1  0
 15 10  1  0
 26 18  1  0
 25 20  1  0
  1 27  1  0
  1 28  1  0
  1 29  1  0
  2 30  1  0
  3 31  1  0
  3 32  1  0
  4 33  1  0
  7 34  1  0
  8 35  1  0
  8 36  1  0
  9 37  1  0
 11 38  1  0
 12 39  1  0
 13 40  1  0
 15 41  1  0
 17 42  1  0
 17 43  1  0
 17 44  1  0
 21 45  1  0
 22 46  1  0
 23 47  1  0
 24 48  1  0
M  END
>  <Energy>  (1310) 
653.04571605398155

>  <compound_id>  (1310) 
6714

>  <target_id>  (1310) 
1

>  <reference_id>  (1310) 
68

>  <inspiration_ids>  (1310) 
[68, 82]

>  <energy_score>  (1310) 
544.5034087552414

>  <distance_score>  (1310) 
3.9583142968807405

>  <path>  (1310) 
/opt/xchem-fragalysis-2/maxwin/BulkDock/SCRATCH/511018/C6714-P68/C6714-P68.minimised.mol

>  <scratch_subdir>  (1310) 
/opt/xchem-fragalysis-2/maxwin/BulkDock/SCRATCH/511018/C6714-P68

>  <fragmenstein_runtime>  (1310) 
14.995823383331299

>  <fragmenstein_outcome>  (1310) 
too moved

>  <fragmenstein_mode>  (1310) 
expansion

>  <fragmenstein_error>  (1310) 


$$$$
C6714-P82
     RDKit          3D

 48 51  0  0  0  0  0  0  0  0999 V2000
  -13.9634  -32.5534   25.5106 C   0  0  0  0  0  0  0  0  0  0  0  0
  -12.9315  -31.7436   26.3080 C   0  0  0  0  0  0  0  0  0  0  0  0
  -13.4574  -30.2307   26.3811 C   0  0  0  0  0  0  0  0  0  0  0  0
  -12.7572  -29.2093   27.1685 N   0  0  0  0  0  0  0  0  0  0  0  0
  -12.9985  -27.6764   27.2763 C   0  0  0  0  0  0  0  0  0  0  0  0
  -13.8385  -27.0086   26.8150 O   0  0  0  0  0  0  0  0  0  0  0  0
  -11.9554  -27.0129   28.1653 C   0  0  0  0  0  0  0  0  0  0  0  0
  -11.0424  -25.9453   27.5948 C   0  0  0  0  0  0  0  0  0  0  0  0
  -12.0368  -25.5486   28.6414 C   0  0  0  0  0  0  0  0  0  0  0  0
  -11.6058  -25.1647   30.0666 C   0  0  0  0  0  0  0  0  0  0  0  0
  -12.2156  -24.0963   30.7443 C   0  0  0  0  0  0  0  0  0  0  0  0
  -12.0383  -23.8839   32.1098 C   0  0  0  0  0  0  0  0  0  0  0  0
  -11.1960  -24.7342   32.7819 C   0  0  0  0  0  0  0  0  0  0  0  0
  -10.4663  -25.6825   32.1721 N   0  0  0  0  0  0  0  0  0  0  0  0
  -10.6841  -25.8675   30.8437 C   0  0  0  0  0  0  0  0  0  0  0  0
  -11.5256  -31.9443   25.7711 N   0  0  0  0  0  0  0  0  0  0  0  0
  -10.4863  -31.1420   26.4815 C   0  0  0  0  0  0  0  0  0  0  0  0
  -11.0704  -33.1458   25.1082 C   0  0  0  0  0  0  0  0  0  0  0  0
  -11.4251  -34.3824   25.3946 N   0  0  0  0  0  0  0  0  0  0  0  0
  -10.7310  -35.3273   24.6465 C   0  0  0  0  0  0  0  0  0  0  0  0
  -10.8639  -36.7171   24.7702 C   0  0  0  0  0  0  0  0  0  0  0  0
  -10.1627  -37.5431   23.8950 C   0  0  0  0  0  0  0  0  0  0  0  0
   -9.3313  -37.0066   22.9158 C   0  0  0  0  0  0  0  0  0  0  0  0
   -9.1515  -35.6337   22.8000 C   0  0  0  0  0  0  0  0  0  0  0  0
   -9.8624  -34.8243   23.6895 C   0  0  0  0  0  0  0  0  0  0  0  0
   -9.8302  -33.1384   23.8328 S   0  0  0  0  0  0  0  0  0  0  0  0
  -13.8168  -33.6293   25.6412 H   0  0  0  0  0  0  0  0  0  0  0  0
  -13.9154  -32.3321   24.4407 H   0  0  0  0  0  0  0  0  0  0  0  0
  -14.9810  -32.3349   25.8526 H   0  0  0  0  0  0  0  0  0  0  0  0
  -12.9840  -32.0816   27.3414 H   0  0  0  0  0  0  0  0  0  0  0  0
  -13.5819  -29.8014   25.3891 H   0  0  0  0  0  0  0  0  0  0  0  0
  -14.4684  -30.2522   26.8083 H   0  0  0  0  0  0  0  0  0  0  0  0
  -11.9837  -29.4709   27.7588 H   0  0  0  0  0  0  0  0  0  0  0  0
  -11.5611  -27.6829   28.9137 H   0  0  0  0  0  0  0  0  0  0  0  0
  -11.2261  -25.5928   26.5850 H   0  0  0  0  0  0  0  0  0  0  0  0
   -9.9941  -25.9706   27.8648 H   0  0  0  0  0  0  0  0  0  0  0  0
  -12.8801  -24.9772   28.2605 H   0  0  0  0  0  0  0  0  0  0  0  0
  -12.9085  -23.4506   30.2193 H   0  0  0  0  0  0  0  0  0  0  0  0
  -12.5952  -23.1155   32.6313 H   0  0  0  0  0  0  0  0  0  0  0  0
  -11.1090  -24.6878   33.8588 H   0  0  0  0  0  0  0  0  0  0  0  0
  -10.0986  -26.6807   30.4258 H   0  0  0  0  0  0  0  0  0  0  0  0
  -10.5656  -31.3093   27.5387 H   0  0  0  0  0  0  0  0  0  0  0  0
  -10.6267  -30.0613   26.3981 H   0  0  0  0  0  0  0  0  0  0  0  0
   -9.4784  -31.2932   26.0878 H   0  0  0  0  0  0  0  0  0  0  0  0
  -11.5287  -37.1324   25.5206 H   0  0  0  0  0  0  0  0  0  0  0  0
  -10.2753  -38.6225   23.9727 H   0  0  0  0  0  0  0  0  0  0  0  0
   -8.7959  -37.6733   22.2421 H   0  0  0  0  0  0  0  0  0  0  0  0
   -8.4775  -35.2103   22.0615 H   0  0  0  0  0  0  0  0  0  0  0  0
  1  2  1  0
  2  3  1  0
  3  4  1  0
  4  5  1  0
  5  6  2  0
  5  7  1  0
  7  8  1  0
  8  9  1  0
  9 10  1  0
 10 11  2  0
 11 12  1  0
 12 13  2  0
 13 14  1  0
 14 15  2  0
  2 16  1  0
 16 17  1  0
 16 18  1  0
 18 19  2  0
 19 20  1  0
 20 21  2  0
 21 22  1  0
 22 23  2  0
 23 24  1  0
 24 25  2  0
 25 26  1  0
  9  7  1  0
 15 10  1  0
 26 18  1  0
 25 20  1  0
  1 27  1  0
  1 28  1  0
  1 29  1  0
  2 30  1  0
  3 31  1  0
  3 32  1  0
  4 33  1  0
  7 34  1  0
  8 35  1  0
  8 36  1  0
  9 37  1  0
 11 38  1  0
 12 39  1  0
 13 40  1  0
 15 41  1  0
 17 42  1  0
 17 43  1  0
 17 44  1  0
 21 45  1  0
 22 46  1  0
 23 47  1  0
 24 48  1  0
M  END
>  <Energy>  (1311) 
67.211126950524161

>  <compound_id>  (1311) 
6714

>  <target_id>  (1311) 
1

>  <reference_id>  (1311) 
82

>  <inspiration_ids>  (1311) 
[68, 82]

>  <energy_score>  (1311) 
-50.9174627693958

>  <distance_score>  (1311) 
2.878713236786386

>  <path>  (1311) 
/opt/xchem-fragalysis-2/maxwin/BulkDock/SCRATCH/511018/C6714-P82/C6714-P82.minimised.mol

>  <scratch_subdir>  (1311) 
/opt/xchem-fragalysis-2/maxwin/BulkDock/SCRATCH/511018/C6714-P82

>  <fragmenstein_runtime>  (1311) 
6.8187689781188965

>  <fragmenstein_outcome>  (1311) 
too moved

>  <fragmenstein_mode>  (1311) 
expansion

>  <fragmenstein_error>  (1311) 


$$$$
C6715-P68
     RDKit          3D

 36 38  0  0  0  0  0  0  0  0999 V2000
  -14.5986  -32.2264   26.4822 O   0  0  0  0  0  0  0  0  0  0  0  0
  -15.1441  -33.1554   27.0039 C   0  0  0  0  0  0  0  0  0  0  0  0
  -14.8762  -34.6133   26.5452 C   0  0  0  0  0  0  0  0  0  0  0  0
  -13.6356  -35.0110   25.7428 C   0  0  0  0  0  0  0  0  0  0  0  0
  -13.2352  -36.3592   25.8340 C   0  0  0  0  0  0  0  0  0  0  0  0
  -12.1112  -36.8552   25.1586 C   0  0  0  0  0  0  0  0  0  0  0  0
  -11.3652  -36.0024   24.3296 C   0  0  0  0  0  0  0  0  0  0  0  0
  -10.2338  -36.3604   23.6156 N   0  0  0  0  0  0  0  0  0  0  0  0
   -9.8077  -35.3263   22.9306 C   0  0  0  0  0  0  0  0  0  0  0  0
  -10.7256  -33.8877   23.0792 S   0  0  0  0  0  0  0  0  0  0  0  0
  -11.7873  -34.6781   24.1886 C   0  0  0  0  0  0  0  0  0  0  0  0
  -12.9174  -34.1673   24.8779 C   0  0  0  0  0  0  0  0  0  0  0  0
  -16.1773  -33.1954   28.0272 N   0  0  0  0  0  0  0  0  0  0  0  0
  -16.9403  -32.1173   28.6670 C   0  0  0  0  0  0  0  0  0  0  0  0
  -18.4177  -32.5607   28.7477 C   0  0  0  0  0  0  0  0  0  0  0  0
  -19.3653  -31.8737   29.0978 O   0  0  0  0  0  0  0  0  0  0  0  0
  -18.6268  -33.8579   28.4088 O   0  0  0  0  0  0  0  0  0  0  0  0
  -16.4376  -31.6373   30.0165 C   0  0  0  0  0  0  0  0  0  0  0  0
  -15.4136  -32.2537   30.7268 C   0  0  0  0  0  0  0  0  0  0  0  0
  -14.9468  -31.7174   31.9312 C   0  0  0  0  0  0  0  0  0  0  0  0
  -15.5423  -30.5778   32.4204 C   0  0  0  0  0  0  0  0  0  0  0  0
  -16.5790  -29.9772   31.8058 N   0  0  0  0  0  0  0  0  0  0  0  0
  -17.0086  -30.5260   30.6406 C   0  0  0  0  0  0  0  0  0  0  0  0
  -14.8644  -35.2255   27.4580 H   0  0  0  0  0  0  0  0  0  0  0  0
  -15.7500  -34.9163   25.9531 H   0  0  0  0  0  0  0  0  0  0  0  0
  -13.7973  -37.0554   26.4566 H   0  0  0  0  0  0  0  0  0  0  0  0
  -11.8113  -37.8938   25.2626 H   0  0  0  0  0  0  0  0  0  0  0  0
   -8.9307  -35.3763   22.2984 H   0  0  0  0  0  0  0  0  0  0  0  0
  -13.2069  -33.1314   24.7311 H   0  0  0  0  0  0  0  0  0  0  0  0
  -16.4643  -34.1585   28.1725 H   0  0  0  0  0  0  0  0  0  0  0  0
  -16.8999  -31.2829   27.9605 H   0  0  0  0  0  0  0  0  0  0  0  0
  -19.5948  -33.9718   28.5340 H   0  0  0  0  0  0  0  0  0  0  0  0
  -14.9430  -33.1574   30.3473 H   0  0  0  0  0  0  0  0  0  0  0  0
  -14.1212  -32.1850   32.4595 H   0  0  0  0  0  0  0  0  0  0  0  0
  -15.2002  -30.1256   33.3446 H   0  0  0  0  0  0  0  0  0  0  0  0
  -17.8558  -30.0022   30.2012 H   0  0  0  0  0  0  0  0  0  0  0  0
  1  2  2  0
  2  3  1  0
  3  4  1  0
  4  5  2  0
  5  6  1  0
  6  7  2  0
  7  8  1  0
  8  9  2  0
  9 10  1  0
 10 11  1  0
 11 12  2  0
  2 13  1  0
 13 14  1  0
 14 15  1  0
 15 16  2  0
 15 17  1  0
 14 18  1  0
 18 19  2  0
 19 20  1  0
 20 21  2  0
 21 22  1  0
 22 23  2  0
 12  4  1  0
 23 18  1  0
 11  7  1  0
  3 24  1  0
  3 25  1  0
  5 26  1  0
  6 27  1  0
  9 28  1  0
 12 29  1  0
 13 30  1  0
 14 31  1  0
 17 32  1  0
 19 33  1  0
 20 34  1  0
 21 35  1  0
 23 36  1  0
M  END
>  <Energy>  (1312) 
68.990779736358277

>  <compound_id>  (1312) 
6715

>  <target_id>  (1312) 
1

>  <reference_id>  (1312) 
68

>  <inspiration_ids>  (1312) 
[68, 82]

>  <energy_score>  (1312) 
-85.99386890880521

>  <distance_score>  (1312) 
7.08390261161023

>  <path>  (1312) 
/opt/xchem-fragalysis-2/maxwin/BulkDock/SCRATCH/511018/C6715-P68/C6715-P68.minimised.mol

>  <scratch_subdir>  (1312) 
/opt/xchem-fragalysis-2/maxwin/BulkDock/SCRATCH/511018/C6715-P68

>  <fragmenstein_runtime>  (1312) 
13.441203355789185

>  <fragmenstein_outcome>  (1312) 
too moved

>  <fragmenstein_mode>  (1312) 
expansion

>  <fragmenstein_error>  (1312) 


$$$$
C6715-P82
     RDKit          3D

 36 38  0  0  0  0  0  0  0  0999 V2000
  -11.2240  -30.9919   26.9353 O   0  0  0  0  0  0  0  0  0  0  0  0
  -12.2778  -30.9729   26.4214 C   0  0  0  0  0  0  0  0  0  0  0  0
  -12.8865  -32.3394   25.7859 C   0  0  0  0  0  0  0  0  0  0  0  0
  -11.9700  -33.5550   25.2198 C   0  0  0  0  0  0  0  0  0  0  0  0
  -12.4739  -34.8612   25.3558 C   0  0  0  0  0  0  0  0  0  0  0  0
  -11.7541  -36.0263   24.9625 C   0  0  0  0  0  0  0  0  0  0  0  0
  -10.5115  -35.9376   24.3055 C   0  0  0  0  0  0  0  0  0  0  0  0
   -9.6932  -36.9870   23.8929 N   0  0  0  0  0  0  0  0  0  0  0  0
   -8.6397  -36.5060   23.2717 C   0  0  0  0  0  0  0  0  0  0  0  0
   -8.5736  -34.8032   23.1231 S   0  0  0  0  0  0  0  0  0  0  0  0
  -10.0285  -34.6579   24.0603 C   0  0  0  0  0  0  0  0  0  0  0  0
  -10.7090  -33.5004   24.5756 C   0  0  0  0  0  0  0  0  0  0  0  0
  -13.2485  -29.7584   26.1212 N   0  0  0  0  0  0  0  0  0  0  0  0
  -13.0450  -28.2317   26.3248 C   0  0  0  0  0  0  0  0  0  0  0  0
  -12.4971  -27.6805   24.9936 C   0  0  0  0  0  0  0  0  0  0  0  0
  -11.4723  -27.0459   24.8121 O   0  0  0  0  0  0  0  0  0  0  0  0
  -13.3569  -27.8904   23.9663 O   0  0  0  0  0  0  0  0  0  0  0  0
  -12.4551  -27.4614   27.5189 C   0  0  0  0  0  0  0  0  0  0  0  0
  -12.2893  -26.0491   27.5825 C   0  0  0  0  0  0  0  0  0  0  0  0
  -11.7789  -25.3873   28.7209 C   0  0  0  0  0  0  0  0  0  0  0  0
  -11.4259  -26.1548   29.7995 C   0  0  0  0  0  0  0  0  0  0  0  0
  -11.6198  -27.4889   29.7951 N   0  0  0  0  0  0  0  0  0  0  0  0
  -12.1425  -28.0833   28.6826 C   0  0  0  0  0  0  0  0  0  0  0  0
  -13.5377  -32.0685   24.9482 H   0  0  0  0  0  0  0  0  0  0  0  0
  -13.5350  -32.7511   26.5698 H   0  0  0  0  0  0  0  0  0  0  0  0
  -13.4375  -35.0178   25.8420 H   0  0  0  0  0  0  0  0  0  0  0  0
  -12.1739  -37.0092   25.1596 H   0  0  0  0  0  0  0  0  0  0  0  0
   -7.8680  -37.1416   22.8579 H   0  0  0  0  0  0  0  0  0  0  0  0
  -10.1224  -32.6015   24.5986 H   0  0  0  0  0  0  0  0  0  0  0  0
  -14.0462  -30.0844   25.5891 H   0  0  0  0  0  0  0  0  0  0  0  0
  -14.0929  -27.8929   26.3465 H   0  0  0  0  0  0  0  0  0  0  0  0
  -12.8724  -27.5402   23.1663 H   0  0  0  0  0  0  0  0  0  0  0  0
  -12.5448  -25.4315   26.7213 H   0  0  0  0  0  0  0  0  0  0  0  0
  -11.6617  -24.3094   28.7367 H   0  0  0  0  0  0  0  0  0  0  0  0
  -11.0112  -25.7309   30.7070 H   0  0  0  0  0  0  0  0  0  0  0  0
  -12.4003  -29.1343   28.7793 H   0  0  0  0  0  0  0  0  0  0  0  0
  1  2  2  0
  2  3  1  0
  3  4  1  0
  4  5  2  0
  5  6  1  0
  6  7  2  0
  7  8  1  0
  8  9  2  0
  9 10  1  0
 10 11  1  0
 11 12  2  0
  2 13  1  0
 13 14  1  0
 14 15  1  0
 15 16  2  0
 15 17  1  0
 14 18  1  0
 18 19  2  0
 19 20  1  0
 20 21  2  0
 21 22  1  0
 22 23  2  0
 12  4  1  0
 23 18  1  0
 11  7  1  0
  3 24  1  0
  3 25  1  0
  5 26  1  0
  6 27  1  0
  9 28  1  0
 12 29  1  0
 13 30  1  0
 14 31  1  0
 17 32  1  0
 19 33  1  0
 20 34  1  0
 21 35  1  0
 23 36  1  0
M  END
>  <Energy>  (1313) 
118.91404245388227

>  <compound_id>  (1313) 
6715

>  <target_id>  (1313) 
1

>  <reference_id>  (1313) 
82

>  <inspiration_ids>  (1313) 
[68, 82]

>  <energy_score>  (1313) 
16.59680851971848

>  <distance_score>  (1313) 
3.7008599988919673

>  <path>  (1313) 
/opt/xchem-fragalysis-2/maxwin/BulkDock/SCRATCH/511018/C6715-P82/C6715-P82.minimised.mol

>  <scratch_subdir>  (1313) 
/opt/xchem-fragalysis-2/maxwin/BulkDock/SCRATCH/511018/C6715-P82

>  <fragmenstein_runtime>  (1313) 
4.228602409362793

>  <fragmenstein_outcome>  (1313) 
too moved

>  <fragmenstein_mode>  (1313) 
expansion

>  <fragmenstein_error>  (1313) 


$$$$
C6716-P68
     RDKit          3D

 40 42  0  0  0  0  0  0  0  0999 V2000
  -10.2031  -28.3462   27.1418 C   0  0  0  0  0  0  0  0  0  0  0  0
  -10.3021  -27.7734   25.6830 C   0  0  0  0  0  0  0  0  0  0  0  0
  -10.9898  -26.4026   25.9178 C   0  0  0  0  0  0  0  0  0  0  0  0
  -10.1698  -25.2382   26.3269 C   0  0  0  0  0  0  0  0  0  0  0  0
  -10.7305  -24.0201   26.9096 C   0  0  0  0  0  0  0  0  0  0  0  0
  -11.7313  -23.2295   26.4537 C   0  0  0  0  0  0  0  0  0  0  0  0
  -11.9183  -22.0331   27.1228 C   0  0  0  0  0  0  0  0  0  0  0  0
  -11.4660  -21.8446   28.3981 C   0  0  0  0  0  0  0  0  0  0  0  0
  -10.4696  -22.5677   28.8285 N   0  0  0  0  0  0  0  0  0  0  0  0
  -10.0839  -23.5839   28.0482 C   0  0  0  0  0  0  0  0  0  0  0  0
   -9.0309  -28.2396   24.6126 N   0  0  0  0  0  0  0  0  0  0  0  0
   -8.6038  -29.6883   23.3460 C   0  0  0  0  0  0  0  0  0  0  0  0
   -9.7487  -31.2691   23.1495 C   0  0  0  0  0  0  0  0  0  0  0  0
   -9.6159  -32.4116   23.8217 N   0  0  0  0  0  0  0  0  0  0  0  0
  -10.3806  -33.4522   23.3350 C   0  0  0  0  0  0  0  0  0  0  0  0
  -10.4460  -34.7436   23.9012 C   0  0  0  0  0  0  0  0  0  0  0  0
  -11.2311  -35.7277   23.2973 C   0  0  0  0  0  0  0  0  0  0  0  0
  -11.9424  -35.4327   22.1403 C   0  0  0  0  0  0  0  0  0  0  0  0
  -11.8800  -34.1581   21.5752 C   0  0  0  0  0  0  0  0  0  0  0  0
  -12.5803  -33.9010   20.4620 F   0  0  0  0  0  0  0  0  0  0  0  0
  -11.0957  -33.1697   22.1800 C   0  0  0  0  0  0  0  0  0  0  0  0
  -10.8233  -31.5378   21.7041 S   0  0  0  0  0  0  0  0  0  0  0  0
  -10.0867  -27.5873   27.9070 H   0  0  0  0  0  0  0  0  0  0  0  0
   -9.4332  -29.0881   27.2993 H   0  0  0  0  0  0  0  0  0  0  0  0
  -11.1105  -28.8197   27.4251 H   0  0  0  0  0  0  0  0  0  0  0  0
  -11.2218  -28.0582   25.2183 H   0  0  0  0  0  0  0  0  0  0  0  0
  -11.7927  -26.6021   26.6229 H   0  0  0  0  0  0  0  0  0  0  0  0
  -11.6628  -26.1760   25.1420 H   0  0  0  0  0  0  0  0  0  0  0  0
   -9.6860  -25.6489   27.1815 H   0  0  0  0  0  0  0  0  0  0  0  0
   -9.4297  -24.9297   25.6057 H   0  0  0  0  0  0  0  0  0  0  0  0
  -12.3281  -23.3844   25.5752 H   0  0  0  0  0  0  0  0  0  0  0  0
  -12.5162  -21.3114   26.6411 H   0  0  0  0  0  0  0  0  0  0  0  0
  -11.8427  -21.0885   29.0715 H   0  0  0  0  0  0  0  0  0  0  0  0
   -9.2263  -24.1190   28.4064 H   0  0  0  0  0  0  0  0  0  0  0  0
   -8.1583  -28.3796   25.1828 H   0  0  0  0  0  0  0  0  0  0  0  0
   -8.4950  -29.2247   22.3753 H   0  0  0  0  0  0  0  0  0  0  0  0
   -7.6170  -29.8932   23.7026 H   0  0  0  0  0  0  0  0  0  0  0  0
   -9.8737  -34.9572   24.7997 H   0  0  0  0  0  0  0  0  0  0  0  0
  -11.2776  -36.7245   23.7292 H   0  0  0  0  0  0  0  0  0  0  0  0
  -12.5533  -36.1928   21.6607 H   0  0  0  0  0  0  0  0  0  0  0  0
  1  2  1  0
  2  3  1  0
  3  4  1  0
  4  5  1  0
  5  6  2  0
  6  7  1  0
  7  8  2  0
  8  9  1  0
  9 10  2  0
  2 11  1  0
 11 12  1  0
 12 13  1  0
 13 14  2  0
 14 15  1  0
 15 16  2  0
 16 17  1  0
 17 18  2  0
 18 19  1  0
 19 20  1  0
 19 21  2  0
 21 22  1  0
 10  5  1  0
 22 13  1  0
 21 15  1  0
  1 23  1  0
  1 24  1  0
  1 25  1  0
  2 26  1  0
  3 27  1  0
  3 28  1  0
  4 29  1  0
  4 30  1  0
  6 31  1  0
  7 32  1  0
  8 33  1  0
 10 34  1  0
 11 35  1  0
 12 36  1  0
 12 37  1  0
 16 38  1  0
 17 39  1  0
 18 40  1  0
M  END
>  <Energy>  (1314) 
279.34238424661362

>  <compound_id>  (1314) 
6716

>  <target_id>  (1314) 
1

>  <reference_id>  (1314) 
68

>  <inspiration_ids>  (1314) 
[68, 82]

>  <energy_score>  (1314) 
131.4366865226416

>  <distance_score>  (1314) 
4.41017225686622

>  <path>  (1314) 
/opt/xchem-fragalysis-2/maxwin/BulkDock/SCRATCH/511018/C6716-P68/C6716-P68.minimised.mol

>  <scratch_subdir>  (1314) 
/opt/xchem-fragalysis-2/maxwin/BulkDock/SCRATCH/511018/C6716-P68

>  <fragmenstein_runtime>  (1314) 
8.844404697418213

>  <fragmenstein_outcome>  (1314) 
too moved

>  <fragmenstein_mode>  (1314) 
expansion

>  <fragmenstein_error>  (1314) 


$$$$
C6716-P82
     RDKit          3D

 40 42  0  0  0  0  0  0  0  0999 V2000
  -12.2708  -29.0263   26.7149 C   0  0  0  0  0  0  0  0  0  0  0  0
  -11.0935  -28.2195   26.1397 C   0  0  0  0  0  0  0  0  0  0  0  0
  -10.8520  -26.7639   26.9745 C   0  0  0  0  0  0  0  0  0  0  0  0
  -11.7551  -26.4682   28.2183 C   0  0  0  0  0  0  0  0  0  0  0  0
  -11.2873  -25.6690   29.4291 C   0  0  0  0  0  0  0  0  0  0  0  0
  -11.8956  -24.4631   29.7866 C   0  0  0  0  0  0  0  0  0  0  0  0
  -11.7551  -23.9352   31.0736 C   0  0  0  0  0  0  0  0  0  0  0  0
  -10.9381  -24.5962   31.9644 C   0  0  0  0  0  0  0  0  0  0  0  0
  -10.2417  -25.6971   31.6354 N   0  0  0  0  0  0  0  0  0  0  0  0
  -10.4445  -26.2121   30.3934 C   0  0  0  0  0  0  0  0  0  0  0  0
   -9.8749  -29.0942   25.6189 N   0  0  0  0  0  0  0  0  0  0  0  0
   -9.5273  -30.6081   25.9959 C   0  0  0  0  0  0  0  0  0  0  0  0
   -9.3127  -32.0060   24.9135 C   0  0  0  0  0  0  0  0  0  0  0  0
  -10.1835  -33.0206   24.9452 N   0  0  0  0  0  0  0  0  0  0  0  0
   -9.8885  -34.0309   24.0592 C   0  0  0  0  0  0  0  0  0  0  0  0
  -10.4612  -35.3166   24.0916 C   0  0  0  0  0  0  0  0  0  0  0  0
  -10.1613  -36.2189   23.0792 C   0  0  0  0  0  0  0  0  0  0  0  0
   -9.3123  -35.8391   22.0462 C   0  0  0  0  0  0  0  0  0  0  0  0
   -8.7222  -34.5737   22.0226 C   0  0  0  0  0  0  0  0  0  0  0  0
   -7.9150  -34.2487   21.0046 F   0  0  0  0  0  0  0  0  0  0  0  0
   -9.0003  -33.6764   23.0540 C   0  0  0  0  0  0  0  0  0  0  0  0
   -8.4446  -32.0609   23.3459 S   0  0  0  0  0  0  0  0  0  0  0  0
  -13.1309  -28.3725   26.8960 H   0  0  0  0  0  0  0  0  0  0  0  0
  -12.0158  -29.5236   27.6505 H   0  0  0  0  0  0  0  0  0  0  0  0
  -12.6419  -29.7907   26.0308 H   0  0  0  0  0  0  0  0  0  0  0  0
  -11.4825  -27.8320   25.1855 H   0  0  0  0  0  0  0  0  0  0  0  0
  -11.0266  -25.9617   26.2452 H   0  0  0  0  0  0  0  0  0  0  0  0
   -9.8026  -26.6622   27.2577 H   0  0  0  0  0  0  0  0  0  0  0  0
  -12.6844  -26.0223   27.8400 H   0  0  0  0  0  0  0  0  0  0  0  0
  -12.0498  -27.4301   28.6491 H   0  0  0  0  0  0  0  0  0  0  0  0
  -12.5483  -23.9594   29.0844 H   0  0  0  0  0  0  0  0  0  0  0  0
  -12.2970  -23.0431   31.3643 H   0  0  0  0  0  0  0  0  0  0  0  0
  -10.8148  -24.2438   32.9809 H   0  0  0  0  0  0  0  0  0  0  0  0
   -9.9284  -27.1510   30.2326 H   0  0  0  0  0  0  0  0  0  0  0  0
  -10.0162  -29.1689   24.5930 H   0  0  0  0  0  0  0  0  0  0  0  0
  -10.3226  -30.9549   26.6666 H   0  0  0  0  0  0  0  0  0  0  0  0
   -8.6005  -30.5850   26.5369 H   0  0  0  0  0  0  0  0  0  0  0  0
  -11.1488  -35.5792   24.8893 H   0  0  0  0  0  0  0  0  0  0  0  0
  -10.6046  -37.2114   23.0843 H   0  0  0  0  0  0  0  0  0  0  0  0
   -9.0854  -36.5336   21.2410 H   0  0  0  0  0  0  0  0  0  0  0  0
  1  2  1  0
  2  3  1  0
  3  4  1  0
  4  5  1  0
  5  6  2  0
  6  7  1  0
  7  8  2  0
  8  9  1  0
  9 10  2  0
  2 11  1  0
 11 12  1  0
 12 13  1  0
 13 14  2  0
 14 15  1  0
 15 16  2  0
 16 17  1  0
 17 18  2  0
 18 19  1  0
 19 20  1  0
 19 21  2  0
 21 22  1  0
 10  5  1  0
 22 13  1  0
 21 15  1  0
  1 23  1  0
  1 24  1  0
  1 25  1  0
  2 26  1  0
  3 27  1  0
  3 28  1  0
  4 29  1  0
  4 30  1  0
  6 31  1  0
  7 32  1  0
  8 33  1  0
 10 34  1  0
 11 35  1  0
 12 36  1  0
 12 37  1  0
 16 38  1  0
 17 39  1  0
 18 40  1  0
M  END
>  <Energy>  (1315) 
141.41604239198958

>  <compound_id>  (1315) 
6716

>  <target_id>  (1315) 
1

>  <reference_id>  (1315) 
82

>  <inspiration_ids>  (1315) 
[68, 82]

>  <energy_score>  (1315) 
6.1414138829574085

>  <distance_score>  (1315) 
3.093846242906068

>  <path>  (1315) 
/opt/xchem-fragalysis-2/maxwin/BulkDock/SCRATCH/511018/C6716-P82/C6716-P82.minimised.mol

>  <scratch_subdir>  (1315) 
/opt/xchem-fragalysis-2/maxwin/BulkDock/SCRATCH/511018/C6716-P82

>  <fragmenstein_runtime>  (1315) 
1.8788623809814453

>  <fragmenstein_outcome>  (1315) 
too moved

>  <fragmenstein_mode>  (1315) 
expansion

>  <fragmenstein_error>  (1315) 


$$$$
C6717-P68
     RDKit          3D

 40 42  0  0  0  0  0  0  0  0999 V2000
  -11.8208  -27.4679   25.5284 C   0  0  0  0  0  0  0  0  0  0  0  0
  -10.3123  -27.5938   25.6226 C   0  0  0  0  0  0  0  0  0  0  0  0
  -10.2670  -26.2073   26.4217 C   0  0  0  0  0  0  0  0  0  0  0  0
   -9.8435  -24.8283   26.1046 C   0  0  0  0  0  0  0  0  0  0  0  0
  -10.5820  -23.8774   26.9617 C   0  0  0  0  0  0  0  0  0  0  0  0
  -11.6537  -23.1388   26.5585 C   0  0  0  0  0  0  0  0  0  0  0  0
  -11.8954  -21.9865   27.2739 C   0  0  0  0  0  0  0  0  0  0  0  0
  -11.4542  -21.8288   28.5497 C   0  0  0  0  0  0  0  0  0  0  0  0
  -10.4761  -22.5857   28.9664 N   0  0  0  0  0  0  0  0  0  0  0  0
  -10.0301  -23.5592   28.1559 C   0  0  0  0  0  0  0  0  0  0  0  0
   -9.0753  -28.2198   24.5457 N   0  0  0  0  0  0  0  0  0  0  0  0
   -8.6460  -29.7544   23.3609 C   0  0  0  0  0  0  0  0  0  0  0  0
   -9.8975  -31.2188   22.9929 C   0  0  0  0  0  0  0  0  0  0  0  0
  -10.6615  -31.1907   21.8939 N   0  0  0  0  0  0  0  0  0  0  0  0
  -11.3222  -32.3881   21.6571 C   0  0  0  0  0  0  0  0  0  0  0  0
  -12.2142  -32.6388   20.5981 C   0  0  0  0  0  0  0  0  0  0  0  0
  -12.8116  -33.8967   20.4785 C   0  0  0  0  0  0  0  0  0  0  0  0
  -12.5184  -34.8925   21.3952 C   0  0  0  0  0  0  0  0  0  0  0  0
  -13.1077  -36.0864   21.2775 F   0  0  0  0  0  0  0  0  0  0  0  0
  -11.6311  -34.6860   22.4406 C   0  0  0  0  0  0  0  0  0  0  0  0
  -11.0516  -33.4163   22.5472 C   0  0  0  0  0  0  0  0  0  0  0  0
   -9.9453  -32.8707   23.7042 S   0  0  0  0  0  0  0  0  0  0  0  0
  -12.2916  -26.6024   25.1131 H   0  0  0  0  0  0  0  0  0  0  0  0
  -12.1931  -27.3176   26.5341 H   0  0  0  0  0  0  0  0  0  0  0  0
  -12.3267  -28.3255   25.2913 H   0  0  0  0  0  0  0  0  0  0  0  0
  -10.1748  -28.3002   26.4576 H   0  0  0  0  0  0  0  0  0  0  0  0
  -11.2913  -25.8755   26.5131 H   0  0  0  0  0  0  0  0  0  0  0  0
  -10.0459  -26.4707   27.4550 H   0  0  0  0  0  0  0  0  0  0  0  0
   -8.8067  -24.6054   26.2407 H   0  0  0  0  0  0  0  0  0  0  0  0
  -10.0484  -24.4985   25.1240 H   0  0  0  0  0  0  0  0  0  0  0  0
  -12.1698  -23.2511   25.6209 H   0  0  0  0  0  0  0  0  0  0  0  0
  -12.5143  -21.2702   26.8141 H   0  0  0  0  0  0  0  0  0  0  0  0
  -11.8204  -21.0765   29.2330 H   0  0  0  0  0  0  0  0  0  0  0  0
   -9.1863  -24.1283   28.4859 H   0  0  0  0  0  0  0  0  0  0  0  0
   -9.3683  -27.7654   23.6613 H   0  0  0  0  0  0  0  0  0  0  0  0
   -7.7079  -30.0645   23.7661 H   0  0  0  0  0  0  0  0  0  0  0  0
   -8.4518  -29.2443   22.4245 H   0  0  0  0  0  0  0  0  0  0  0  0
  -12.4246  -31.8544   19.8769 H   0  0  0  0  0  0  0  0  0  0  0  0
  -13.5019  -34.0994   19.6652 H   0  0  0  0  0  0  0  0  0  0  0  0
  -11.4082  -35.4797   23.1442 H   0  0  0  0  0  0  0  0  0  0  0  0
  1  2  1  0
  2  3  1  0
  3  4  1  0
  4  5  1  0
  5  6  2  0
  6  7  1  0
  7  8  2  0
  8  9  1  0
  9 10  2  0
  2 11  1  0
 11 12  1  0
 12 13  1  0
 13 14  2  0
 14 15  1  0
 15 16  2  0
 16 17  1  0
 17 18  2  0
 18 19  1  0
 18 20  1  0
 20 21  2  0
 21 22  1  0
 10  5  1  0
 22 13  1  0
 21 15  1  0
  1 23  1  0
  1 24  1  0
  1 25  1  0
  2 26  1  0
  3 27  1  0
  3 28  1  0
  4 29  1  0
  4 30  1  0
  6 31  1  0
  7 32  1  0
  8 33  1  0
 10 34  1  0
 11 35  1  0
 12 36  1  0
 12 37  1  0
 16 38  1  0
 17 39  1  0
 20 40  1  0
M  END
>  <Energy>  (1316) 
332.3650770565518

>  <compound_id>  (1316) 
6717

>  <target_id>  (1316) 
1

>  <reference_id>  (1316) 
68

>  <inspiration_ids>  (1316) 
[68, 82]

>  <energy_score>  (1316) 
206.61099128504782

>  <distance_score>  (1316) 
4.779573794685237

>  <path>  (1316) 
/opt/xchem-fragalysis-2/maxwin/BulkDock/SCRATCH/511018/C6717-P68/C6717-P68.minimised.mol

>  <scratch_subdir>  (1316) 
/opt/xchem-fragalysis-2/maxwin/BulkDock/SCRATCH/511018/C6717-P68

>  <fragmenstein_runtime>  (1316) 
13.453421831130981

>  <fragmenstein_outcome>  (1316) 
too moved

>  <fragmenstein_mode>  (1316) 
expansion

>  <fragmenstein_error>  (1316) 


$$$$
C6717-P82
     RDKit          3D

 40 42  0  0  0  0  0  0  0  0999 V2000
  -10.8690  -27.8155   25.5850 C   0  0  0  0  0  0  0  0  0  0  0  0
  -11.8037  -28.4615   26.5892 C   0  0  0  0  0  0  0  0  0  0  0  0
  -12.0272  -27.5770   27.9291 C   0  0  0  0  0  0  0  0  0  0  0  0
  -11.2639  -26.2239   28.1775 C   0  0  0  0  0  0  0  0  0  0  0  0
  -11.2702  -25.6707   29.5971 C   0  0  0  0  0  0  0  0  0  0  0  0
  -11.9743  -24.5141   29.9408 C   0  0  0  0  0  0  0  0  0  0  0  0
  -12.0111  -24.0510   31.2603 C   0  0  0  0  0  0  0  0  0  0  0  0
  -11.2879  -24.7346   32.2121 C   0  0  0  0  0  0  0  0  0  0  0  0
  -10.5267  -25.8016   31.9152 N   0  0  0  0  0  0  0  0  0  0  0  0
  -10.5385  -26.2457   30.6303 C   0  0  0  0  0  0  0  0  0  0  0  0
  -11.8609  -30.0186   26.5309 N   0  0  0  0  0  0  0  0  0  0  0  0
  -10.6436  -30.9743   26.5016 C   0  0  0  0  0  0  0  0  0  0  0  0
  -10.7048  -32.3818   25.4429 C   0  0  0  0  0  0  0  0  0  0  0  0
  -11.5041  -33.4279   25.5269 N   0  0  0  0  0  0  0  0  0  0  0  0
  -11.2086  -34.3875   24.5679 C   0  0  0  0  0  0  0  0  0  0  0  0
  -11.9114  -35.5882   24.4020 C   0  0  0  0  0  0  0  0  0  0  0  0
  -11.7751  -36.2550   23.1927 C   0  0  0  0  0  0  0  0  0  0  0  0
  -10.9064  -35.7645   22.2286 C   0  0  0  0  0  0  0  0  0  0  0  0
  -10.9893  -36.2379   20.9904 F   0  0  0  0  0  0  0  0  0  0  0  0
  -10.0234  -34.7302   22.4610 C   0  0  0  0  0  0  0  0  0  0  0  0
  -10.2252  -34.0431   23.6487 C   0  0  0  0  0  0  0  0  0  0  0  0
   -9.4153  -32.6662   24.2080 S   0  0  0  0  0  0  0  0  0  0  0  0
  -10.9528  -26.7265   25.6087 H   0  0  0  0  0  0  0  0  0  0  0  0
  -11.1596  -28.0976   24.5743 H   0  0  0  0  0  0  0  0  0  0  0  0
   -9.8297  -28.0983   25.7404 H   0  0  0  0  0  0  0  0  0  0  0  0
  -12.7800  -28.2836   26.1081 H   0  0  0  0  0  0  0  0  0  0  0  0
  -13.0867  -27.3102   27.8945 H   0  0  0  0  0  0  0  0  0  0  0  0
  -11.9341  -28.2237   28.7995 H   0  0  0  0  0  0  0  0  0  0  0  0
  -10.2123  -26.3327   27.8902 H   0  0  0  0  0  0  0  0  0  0  0  0
  -11.6788  -25.4687   27.4977 H   0  0  0  0  0  0  0  0  0  0  0  0
  -12.5247  -23.9718   29.1808 H   0  0  0  0  0  0  0  0  0  0  0  0
  -12.6194  -23.1949   31.5273 H   0  0  0  0  0  0  0  0  0  0  0  0
  -11.3076  -24.4408   33.2559 H   0  0  0  0  0  0  0  0  0  0  0  0
   -9.9165  -27.1213   30.4729 H   0  0  0  0  0  0  0  0  0  0  0  0
  -12.5221  -30.3674   27.2238 H   0  0  0  0  0  0  0  0  0  0  0  0
  -10.5592  -31.3369   27.5043 H   0  0  0  0  0  0  0  0  0  0  0  0
   -9.7261  -30.4477   26.2165 H   0  0  0  0  0  0  0  0  0  0  0  0
  -12.6585  -35.8902   25.1282 H   0  0  0  0  0  0  0  0  0  0  0  0
  -12.4111  -37.1031   22.9576 H   0  0  0  0  0  0  0  0  0  0  0  0
   -9.3244  -34.3914   21.7045 H   0  0  0  0  0  0  0  0  0  0  0  0
  1  2  1  0
  2  3  1  0
  3  4  1  0
  4  5  1  0
  5  6  2  0
  6  7  1  0
  7  8  2  0
  8  9  1  0
  9 10  2  0
  2 11  1  0
 11 12  1  0
 12 13  1  0
 13 14  2  0
 14 15  1  0
 15 16  2  0
 16 17  1  0
 17 18  2  0
 18 19  1  0
 18 20  1  0
 20 21  2  0
 21 22  1  0
 10  5  1  0
 22 13  1  0
 21 15  1  0
  1 23  1  0
  1 24  1  0
  1 25  1  0
  2 26  1  0
  3 27  1  0
  3 28  1  0
  4 29  1  0
  4 30  1  0
  6 31  1  0
  7 32  1  0
  8 33  1  0
 10 34  1  0
 11 35  1  0
 12 36  1  0
 12 37  1  0
 16 38  1  0
 17 39  1  0
 20 40  1  0
M  END
>  <Energy>  (1317) 
112.58468956766829

>  <compound_id>  (1317) 
6717

>  <target_id>  (1317) 
1

>  <reference_id>  (1317) 
82

>  <inspiration_ids>  (1317) 
[68, 82]

>  <energy_score>  (1317) 
34.514882547874834

>  <distance_score>  (1317) 
3.2165528755778556

>  <path>  (1317) 
/opt/xchem-fragalysis-2/maxwin/BulkDock/SCRATCH/511018/C6717-P82/C6717-P82.minimised.mol

>  <scratch_subdir>  (1317) 
/opt/xchem-fragalysis-2/maxwin/BulkDock/SCRATCH/511018/C6717-P82

>  <fragmenstein_runtime>  (1317) 
3.5330073833465576

>  <fragmenstein_outcome>  (1317) 
too moved

>  <fragmenstein_mode>  (1317) 
expansion

>  <fragmenstein_error>  (1317) 


$$$$
C6718-P68
     RDKit          3D

 40 42  0  0  0  0  0  0  0  0999 V2000
  -10.3630  -28.1489   27.1836 C   0  0  0  0  0  0  0  0  0  0  0  0
  -10.5402  -27.7231   25.6942 C   0  0  0  0  0  0  0  0  0  0  0  0
  -10.7403  -26.2544   25.7746 C   0  0  0  0  0  0  0  0  0  0  0  0
  -11.9787  -25.5165   26.1899 C   0  0  0  0  0  0  0  0  0  0  0  0
  -11.4224  -24.1571   26.6095 C   0  0  0  0  0  0  0  0  0  0  0  0
  -12.0633  -22.9955   26.3283 C   0  0  0  0  0  0  0  0  0  0  0  0
  -11.8499  -21.9634   27.2356 C   0  0  0  0  0  0  0  0  0  0  0  0
  -11.0620  -22.1002   28.3453 C   0  0  0  0  0  0  0  0  0  0  0  0
  -10.1741  -23.0758   28.3953 N   0  0  0  0  0  0  0  0  0  0  0  0
  -10.3348  -24.0499   27.4930 C   0  0  0  0  0  0  0  0  0  0  0  0
   -9.1590  -28.2104   24.7156 N   0  0  0  0  0  0  0  0  0  0  0  0
   -8.6032  -29.6142   23.3792 C   0  0  0  0  0  0  0  0  0  0  0  0
   -9.8517  -31.1143   22.9955 C   0  0  0  0  0  0  0  0  0  0  0  0
  -10.6204  -31.0978   21.8913 N   0  0  0  0  0  0  0  0  0  0  0  0
  -11.2574  -32.3048   21.6192 C   0  0  0  0  0  0  0  0  0  0  0  0
  -12.1284  -32.5485   20.5444 C   0  0  0  0  0  0  0  0  0  0  0  0
  -12.6736  -33.8207   20.3860 C   0  0  0  0  0  0  0  0  0  0  0  0
  -13.5090  -34.0512   19.3641 F   0  0  0  0  0  0  0  0  0  0  0  0
  -12.3750  -34.8561   21.2572 C   0  0  0  0  0  0  0  0  0  0  0  0
  -11.5132  -34.6368   22.3286 C   0  0  0  0  0  0  0  0  0  0  0  0
  -10.9757  -33.3478   22.4860 C   0  0  0  0  0  0  0  0  0  0  0  0
   -9.9178  -32.7999   23.6876 S   0  0  0  0  0  0  0  0  0  0  0  0
  -11.2679  -28.4160   27.6581 H   0  0  0  0  0  0  0  0  0  0  0  0
  -10.0422  -27.3307   27.8100 H   0  0  0  0  0  0  0  0  0  0  0  0
   -9.7129  -29.0042   27.3596 H   0  0  0  0  0  0  0  0  0  0  0  0
  -11.5120  -27.9964   25.2971 H   0  0  0  0  0  0  0  0  0  0  0  0
   -9.8113  -25.7096   25.8738 H   0  0  0  0  0  0  0  0  0  0  0  0
  -10.9916  -26.1985   24.7846 H   0  0  0  0  0  0  0  0  0  0  0  0
  -12.7753  -25.3757   25.4502 H   0  0  0  0  0  0  0  0  0  0  0  0
  -12.6313  -26.1241   26.8174 H   0  0  0  0  0  0  0  0  0  0  0  0
  -12.8440  -22.9039   25.5834 H   0  0  0  0  0  0  0  0  0  0  0  0
  -12.4218  -21.0865   27.1459 H   0  0  0  0  0  0  0  0  0  0  0  0
  -11.0765  -21.3863   29.1563 H   0  0  0  0  0  0  0  0  0  0  0  0
   -9.6759  -24.8745   27.6861 H   0  0  0  0  0  0  0  0  0  0  0  0
   -9.0025  -28.6798   25.6425 H   0  0  0  0  0  0  0  0  0  0  0  0
   -8.3744  -29.0299   22.4833 H   0  0  0  0  0  0  0  0  0  0  0  0
   -7.6476  -29.9146   23.7456 H   0  0  0  0  0  0  0  0  0  0  0  0
  -12.3589  -31.7609   19.8356 H   0  0  0  0  0  0  0  0  0  0  0  0
  -12.8161  -35.8350   21.0945 H   0  0  0  0  0  0  0  0  0  0  0  0
  -11.2656  -35.4370   23.0194 H   0  0  0  0  0  0  0  0  0  0  0  0
  1  2  1  0
  2  3  1  0
  3  4  1  0
  4  5  1  0
  5  6  2  0
  6  7  1  0
  7  8  2  0
  8  9  1  0
  9 10  2  0
  2 11  1  0
 11 12  1  0
 12 13  1  0
 13 14  2  0
 14 15  1  0
 15 16  2  0
 16 17  1  0
 17 18  1  0
 17 19  2  0
 19 20  1  0
 20 21  2  0
 21 22  1  0
 10  5  1  0
 22 13  1  0
 21 15  1  0
  1 23  1  0
  1 24  1  0
  1 25  1  0
  2 26  1  0
  3 27  1  0
  3 28  1  0
  4 29  1  0
  4 30  1  0
  6 31  1  0
  7 32  1  0
  8 33  1  0
 10 34  1  0
 11 35  1  0
 12 36  1  0
 12 37  1  0
 16 38  1  0
 19 39  1  0
 20 40  1  0
M  END
>  <Energy>  (1318) 
327.55330016070548

>  <compound_id>  (1318) 
6718

>  <target_id>  (1318) 
1

>  <reference_id>  (1318) 
68

>  <inspiration_ids>  (1318) 
[68, 82]

>  <energy_score>  (1318) 
203.69854024476717

>  <distance_score>  (1318) 
4.815263587044707

>  <path>  (1318) 
/opt/xchem-fragalysis-2/maxwin/BulkDock/SCRATCH/511018/C6718-P68/C6718-P68.minimised.mol

>  <scratch_subdir>  (1318) 
/opt/xchem-fragalysis-2/maxwin/BulkDock/SCRATCH/511018/C6718-P68

>  <fragmenstein_runtime>  (1318) 
9.064286708831787

>  <fragmenstein_outcome>  (1318) 
too moved

>  <fragmenstein_mode>  (1318) 
expansion

>  <fragmenstein_error>  (1318) 


$$$$
C6718-P82
     RDKit          3D

 40 42  0  0  0  0  0  0  0  0999 V2000
  -10.8474  -27.8838   25.5779 C   0  0  0  0  0  0  0  0  0  0  0  0
  -11.8000  -28.5348   26.5641 C   0  0  0  0  0  0  0  0  0  0  0  0
  -12.0490  -27.6440   27.9043 C   0  0  0  0  0  0  0  0  0  0  0  0
  -11.3079  -26.2726   28.1491 C   0  0  0  0  0  0  0  0  0  0  0  0
  -11.2964  -25.7118   29.5663 C   0  0  0  0  0  0  0  0  0  0  0  0
  -11.9862  -24.5462   29.9091 C   0  0  0  0  0  0  0  0  0  0  0  0
  -12.0041  -24.0705   31.2248 C   0  0  0  0  0  0  0  0  0  0  0  0
  -11.2729  -24.7494   32.1735 C   0  0  0  0  0  0  0  0  0  0  0  0
  -10.5209  -25.8224   31.8757 N   0  0  0  0  0  0  0  0  0  0  0  0
  -10.5525  -26.2784   30.5950 C   0  0  0  0  0  0  0  0  0  0  0  0
  -11.8753  -30.1000   26.4903 N   0  0  0  0  0  0  0  0  0  0  0  0
  -10.6673  -31.0815   26.4432 C   0  0  0  0  0  0  0  0  0  0  0  0
  -10.7195  -32.5039   25.3500 C   0  0  0  0  0  0  0  0  0  0  0  0
  -11.4610  -33.5936   25.4633 N   0  0  0  0  0  0  0  0  0  0  0  0
  -10.9992  -34.6389   24.6515 C   0  0  0  0  0  0  0  0  0  0  0  0
  -11.5076  -35.9457   24.6508 C   0  0  0  0  0  0  0  0  0  0  0  0
  -10.9962  -36.8594   23.7390 C   0  0  0  0  0  0  0  0  0  0  0  0
  -11.4903  -38.1051   23.7201 F   0  0  0  0  0  0  0  0  0  0  0  0
  -10.0002  -36.5167   22.8364 C   0  0  0  0  0  0  0  0  0  0  0  0
   -9.4509  -35.2398   22.8443 C   0  0  0  0  0  0  0  0  0  0  0  0
   -9.9613  -34.3301   23.7798 C   0  0  0  0  0  0  0  0  0  0  0  0
   -9.4426  -32.7427   24.0915 S   0  0  0  0  0  0  0  0  0  0  0  0
  -11.1516  -28.1177   24.5590 H   0  0  0  0  0  0  0  0  0  0  0  0
   -9.8172  -28.2057   25.7188 H   0  0  0  0  0  0  0  0  0  0  0  0
  -10.8951  -26.7945   25.6354 H   0  0  0  0  0  0  0  0  0  0  0  0
  -12.7673  -28.3479   26.0680 H   0  0  0  0  0  0  0  0  0  0  0  0
  -13.1143  -27.3993   27.8643 H   0  0  0  0  0  0  0  0  0  0  0  0
  -11.9497  -28.2833   28.7783 H   0  0  0  0  0  0  0  0  0  0  0  0
  -10.2584  -26.3592   27.8469 H   0  0  0  0  0  0  0  0  0  0  0  0
  -11.7481  -25.5275   27.4738 H   0  0  0  0  0  0  0  0  0  0  0  0
  -12.5394  -24.0052   29.1504 H   0  0  0  0  0  0  0  0  0  0  0  0
  -12.6031  -23.2076   31.4906 H   0  0  0  0  0  0  0  0  0  0  0  0
  -11.2767  -24.4458   33.2146 H   0  0  0  0  0  0  0  0  0  0  0  0
   -9.9333  -27.1555   30.4382 H   0  0  0  0  0  0  0  0  0  0  0  0
  -12.5353  -30.4444   27.1869 H   0  0  0  0  0  0  0  0  0  0  0  0
  -10.5934  -31.4411   27.4456 H   0  0  0  0  0  0  0  0  0  0  0  0
   -9.7375  -30.5612   26.1826 H   0  0  0  0  0  0  0  0  0  0  0  0
  -12.3018  -36.2298   25.3309 H   0  0  0  0  0  0  0  0  0  0  0  0
   -9.6360  -37.2626   22.1353 H   0  0  0  0  0  0  0  0  0  0  0  0
   -8.6459  -34.9621   22.1692 H   0  0  0  0  0  0  0  0  0  0  0  0
  1  2  1  0
  2  3  1  0
  3  4  1  0
  4  5  1  0
  5  6  2  0
  6  7  1  0
  7  8  2  0
  8  9  1  0
  9 10  2  0
  2 11  1  0
 11 12  1  0
 12 13  1  0
 13 14  2  0
 14 15  1  0
 15 16  2  0
 16 17  1  0
 17 18  1  0
 17 19  2  0
 19 20  1  0
 20 21  2  0
 21 22  1  0
 10  5  1  0
 22 13  1  0
 21 15  1  0
  1 23  1  0
  1 24  1  0
  1 25  1  0
  2 26  1  0
  3 27  1  0
  3 28  1  0
  4 29  1  0
  4 30  1  0
  6 31  1  0
  7 32  1  0
  8 33  1  0
 10 34  1  0
 11 35  1  0
 12 36  1  0
 12 37  1  0
 16 38  1  0
 19 39  1  0
 20 40  1  0
M  END
>  <Energy>  (1319) 
114.17008405276853

>  <compound_id>  (1319) 
6718

>  <target_id>  (1319) 
1

>  <reference_id>  (1319) 
82

>  <inspiration_ids>  (1319) 
[68, 82]

>  <energy_score>  (1319) 
10.38326255954803

>  <distance_score>  (1319) 
3.2244109032737938

>  <path>  (1319) 
/opt/xchem-fragalysis-2/maxwin/BulkDock/SCRATCH/511018/C6718-P82/C6718-P82.minimised.mol

>  <scratch_subdir>  (1319) 
/opt/xchem-fragalysis-2/maxwin/BulkDock/SCRATCH/511018/C6718-P82

>  <fragmenstein_runtime>  (1319) 
3.0346732139587402

>  <fragmenstein_outcome>  (1319) 
too moved

>  <fragmenstein_mode>  (1319) 
expansion

>  <fragmenstein_error>  (1319) 


$$$$
C6719-P68
     RDKit          3D

 40 42  0  0  0  0  0  0  0  0999 V2000
   -9.0481  -38.9637   23.5320 C   0  0  0  0  0  0  0  0  0  0  0  0
  -10.0481  -37.8949   23.7975 C   0  0  0  0  0  0  0  0  0  0  0  0
  -10.1398  -36.7761   23.1154 N   0  0  0  0  0  0  0  0  0  0  0  0
  -11.1284  -35.9725   23.6593 C   0  0  0  0  0  0  0  0  0  0  0  0
  -11.4687  -34.6801   23.2270 C   0  0  0  0  0  0  0  0  0  0  0  0
  -12.3934  -33.9257   23.9634 C   0  0  0  0  0  0  0  0  0  0  0  0
  -13.0114  -34.4399   25.1122 C   0  0  0  0  0  0  0  0  0  0  0  0
  -13.6613  -33.5016   26.1420 C   0  0  0  0  0  0  0  0  0  0  0  0
  -14.4568  -33.8350   26.8858 O   0  0  0  0  0  0  0  0  0  0  0  0
  -12.8474  -32.0806   25.9179 N   0  0  0  0  0  0  0  0  0  0  0  0
  -13.1922  -30.9734   26.6383 C   0  0  0  0  0  0  0  0  0  0  0  0
  -12.6619  -30.3374   26.8185 C   0  0  0  0  0  0  0  0  0  0  0  0
  -11.5120  -28.9747   28.1269 C   0  0  0  0  0  0  0  0  0  0  0  0
  -11.2004  -27.6717   27.4967 O   0  0  0  0  0  0  0  0  0  0  0  0
  -11.9938  -28.6058   30.1466 C   0  0  0  0  0  0  0  0  0  0  0  0
  -12.7021  -29.5221   31.3667 C   0  0  0  0  0  0  0  0  0  0  0  0
  -13.0428  -29.4339   32.7542 C   0  0  0  0  0  0  0  0  0  0  0  0
  -12.4934  -28.3709   33.3068 C   0  0  0  0  0  0  0  0  0  0  0  0
  -11.5724  -27.7924   32.5448 N   0  0  0  0  0  0  0  0  0  0  0  0
  -11.2241  -28.2814   31.2524 C   0  0  0  0  0  0  0  0  0  0  0  0
  -12.8123  -35.7868   25.4467 C   0  0  0  0  0  0  0  0  0  0  0  0
  -11.8176  -36.5097   24.7476 C   0  0  0  0  0  0  0  0  0  0  0  0
  -11.1886  -38.0835   25.0652 S   0  0  0  0  0  0  0  0  0  0  0  0
   -8.4105  -38.6893   22.6853 H   0  0  0  0  0  0  0  0  0  0  0  0
   -9.5422  -39.9096   23.2884 H   0  0  0  0  0  0  0  0  0  0  0  0
   -8.4022  -39.1174   24.4026 H   0  0  0  0  0  0  0  0  0  0  0  0
  -10.9604  -34.2493   22.3696 H   0  0  0  0  0  0  0  0  0  0  0  0
  -12.5710  -32.9004   23.6508 H   0  0  0  0  0  0  0  0  0  0  0  0
  -13.4552  -31.7694   27.5186 H   0  0  0  0  0  0  0  0  0  0  0  0
  -14.3746  -30.8690   27.0855 H   0  0  0  0  0  0  0  0  0  0  0  0
  -14.0639  -30.8932   25.7948 H   0  0  0  0  0  0  0  0  0  0  0  0
  -12.7203  -29.5190   25.9301 H   0  0  0  0  0  0  0  0  0  0  0  0
  -11.4683  -30.8925   26.5063 H   0  0  0  0  0  0  0  0  0  0  0  0
  -10.4634  -29.3306   27.8878 H   0  0  0  0  0  0  0  0  0  0  0  0
  -10.2614  -27.4662   27.6503 H   0  0  0  0  0  0  0  0  0  0  0  0
  -12.6815  -30.6424   31.3113 H   0  0  0  0  0  0  0  0  0  0  0  0
  -13.5885  -30.1886   33.2948 H   0  0  0  0  0  0  0  0  0  0  0  0
  -12.6331  -28.0236   34.3170 H   0  0  0  0  0  0  0  0  0  0  0  0
  -10.1773  -28.1189   31.0434 H   0  0  0  0  0  0  0  0  0  0  0  0
  -13.2952  -36.2166   26.3199 H   0  0  0  0  0  0  0  0  0  0  0  0
  1  2  1  0
  2  3  2  0
  3  4  1  0
  4  5  2  0
  5  6  1  0
  6  7  2  0
  7  8  1  0
  8  9  2  0
  8 10  1  0
 10 11  1  0
 10 12  1  0
 12 13  1  0
 13 14  1  0
 13 15  1  0
 15 16  2  0
 16 17  1  0
 17 18  2  0
 18 19  1  0
 19 20  2  0
  7 21  1  0
 21 22  2  0
 22 23  1  0
 23  2  1  0
 22  4  1  0
 20 15  1  0
  1 24  1  0
  1 25  1  0
  1 26  1  0
  5 27  1  0
  6 28  1  0
 11 29  1  0
 11 30  1  0
 11 31  1  0
 12 32  1  0
 12 33  1  0
 13 34  1  0
 14 35  1  0
 16 36  1  0
 17 37  1  0
 18 38  1  0
 20 39  1  0
 21 40  1  0
M  END
>  <Energy>  (1320) 
1190.7708220455431

>  <compound_id>  (1320) 
6719

>  <target_id>  (1320) 
1

>  <reference_id>  (1320) 
68

>  <inspiration_ids>  (1320) 
[68, 82]

>  <energy_score>  (1320) 
1050.0989975665639

>  <distance_score>  (1320) 
4.494795833773693

>  <path>  (1320) 
/opt/xchem-fragalysis-2/maxwin/BulkDock/SCRATCH/511018/C6719-P68/C6719-P68.minimised.mol

>  <scratch_subdir>  (1320) 
/opt/xchem-fragalysis-2/maxwin/BulkDock/SCRATCH/511018/C6719-P68

>  <fragmenstein_runtime>  (1320) 
17.894529342651367

>  <fragmenstein_outcome>  (1320) 
too moved

>  <fragmenstein_mode>  (1320) 
expansion

>  <fragmenstein_error>  (1320) 


$$$$
C6719-P82
     RDKit          3D

 40 42  0  0  0  0  0  0  0  0999 V2000
   -8.4214  -37.0650   22.4717 C   0  0  0  0  0  0  0  0  0  0  0  0
   -9.5382  -36.2904   23.0768 C   0  0  0  0  0  0  0  0  0  0  0  0
  -10.7537  -36.7537   23.2626 N   0  0  0  0  0  0  0  0  0  0  0  0
  -11.5509  -35.7751   23.8362 C   0  0  0  0  0  0  0  0  0  0  0  0
  -12.9184  -35.8889   24.1383 C   0  0  0  0  0  0  0  0  0  0  0  0
  -13.6072  -34.7942   24.6897 C   0  0  0  0  0  0  0  0  0  0  0  0
  -12.9617  -33.5884   25.0059 C   0  0  0  0  0  0  0  0  0  0  0  0
  -13.8163  -32.4458   25.5540 C   0  0  0  0  0  0  0  0  0  0  0  0
  -14.9601  -32.6018   25.4665 O   0  0  0  0  0  0  0  0  0  0  0  0
  -12.9513  -31.3029   26.1958 N   0  0  0  0  0  0  0  0  0  0  0  0
  -13.2021  -30.2495   26.9201 C   0  0  0  0  0  0  0  0  0  0  0  0
  -13.7263  -29.6264   26.8943 C   0  0  0  0  0  0  0  0  0  0  0  0
  -13.3344  -28.0541   26.1795 C   0  0  0  0  0  0  0  0  0  0  0  0
  -12.7506  -28.1810   24.8922 O   0  0  0  0  0  0  0  0  0  0  0  0
  -12.6095  -27.0236   27.0192 C   0  0  0  0  0  0  0  0  0  0  0  0
  -12.5598  -25.6837   26.6122 C   0  0  0  0  0  0  0  0  0  0  0  0
  -11.9571  -24.7158   27.4177 C   0  0  0  0  0  0  0  0  0  0  0  0
  -11.4088  -25.1134   28.6218 C   0  0  0  0  0  0  0  0  0  0  0  0
  -11.4149  -26.3916   29.0438 N   0  0  0  0  0  0  0  0  0  0  0  0
  -12.0169  -27.2932   28.2395 C   0  0  0  0  0  0  0  0  0  0  0  0
  -11.5848  -33.5028   24.7708 C   0  0  0  0  0  0  0  0  0  0  0  0
  -10.9125  -34.5728   24.1334 C   0  0  0  0  0  0  0  0  0  0  0  0
   -9.2881  -34.6714   23.5712 S   0  0  0  0  0  0  0  0  0  0  0  0
   -7.5764  -37.1361   23.1641 H   0  0  0  0  0  0  0  0  0  0  0  0
   -8.0788  -36.5943   21.5448 H   0  0  0  0  0  0  0  0  0  0  0  0
   -8.7473  -38.0824   22.2328 H   0  0  0  0  0  0  0  0  0  0  0  0
  -13.4418  -36.8139   23.9159 H   0  0  0  0  0  0  0  0  0  0  0  0
  -14.6753  -34.9050   24.8769 H   0  0  0  0  0  0  0  0  0  0  0  0
  -12.0172  -29.9780   26.6404 H   0  0  0  0  0  0  0  0  0  0  0  0
  -12.4713  -30.3021   27.9720 H   0  0  0  0  0  0  0  0  0  0  0  0
  -13.6478  -31.1614   27.7138 H   0  0  0  0  0  0  0  0  0  0  0  0
  -14.3489  -29.4509   27.9783 H   0  0  0  0  0  0  0  0  0  0  0  0
  -14.7842  -29.7022   26.2635 H   0  0  0  0  0  0  0  0  0  0  0  0
  -14.3342  -27.6267   26.0117 H   0  0  0  0  0  0  0  0  0  0  0  0
  -11.8033  -28.4054   24.9861 H   0  0  0  0  0  0  0  0  0  0  0  0
  -13.0081  -25.3743   25.6697 H   0  0  0  0  0  0  0  0  0  0  0  0
  -11.9326  -23.6723   27.1170 H   0  0  0  0  0  0  0  0  0  0  0  0
  -10.9479  -24.3979   29.2953 H   0  0  0  0  0  0  0  0  0  0  0  0
  -12.0293  -28.2835   28.6636 H   0  0  0  0  0  0  0  0  0  0  0  0
  -11.0279  -32.6262   25.0611 H   0  0  0  0  0  0  0  0  0  0  0  0
  1  2  1  0
  2  3  2  0
  3  4  1  0
  4  5  2  0
  5  6  1  0
  6  7  2  0
  7  8  1  0
  8  9  2  0
  8 10  1  0
 10 11  1  0
 10 12  1  0
 12 13  1  0
 13 14  1  0
 13 15  1  0
 15 16  2  0
 16 17  1  0
 17 18  2  0
 18 19  1  0
 19 20  2  0
  7 21  1  0
 21 22  2  0
 22 23  1  0
 23  2  1  0
 22  4  1  0
 20 15  1  0
  1 24  1  0
  1 25  1  0
  1 26  1  0
  5 27  1  0
  6 28  1  0
 11 29  1  0
 11 30  1  0
 11 31  1  0
 12 32  1  0
 12 33  1  0
 13 34  1  0
 14 35  1  0
 16 36  1  0
 17 37  1  0
 18 38  1  0
 20 39  1  0
 21 40  1  0
M  END
>  <Energy>  (1321) 
821.5257681365789

>  <compound_id>  (1321) 
6719

>  <target_id>  (1321) 
1

>  <reference_id>  (1321) 
82

>  <inspiration_ids>  (1321) 
[68, 82]

>  <energy_score>  (1321) 
680.853943657605

>  <distance_score>  (1321) 
4.024821835176211

>  <path>  (1321) 
/opt/xchem-fragalysis-2/maxwin/BulkDock/SCRATCH/511018/C6719-P82/C6719-P82.minimised.mol

>  <scratch_subdir>  (1321) 
/opt/xchem-fragalysis-2/maxwin/BulkDock/SCRATCH/511018/C6719-P82

>  <fragmenstein_runtime>  (1321) 
11.50772213935852

>  <fragmenstein_outcome>  (1321) 
too moved

>  <fragmenstein_mode>  (1321) 
expansion

>  <fragmenstein_error>  (1321) 


$$$$
C6720-P68
     RDKit          3D

 40 42  0  0  0  0  0  0  0  0999 V2000
   -8.1640  -38.3894   23.7612 C   0  0  0  0  0  0  0  0  0  0  0  0
   -9.1807  -37.3428   24.0533 C   0  0  0  0  0  0  0  0  0  0  0  0
  -10.4164  -37.5912   24.4289 N   0  0  0  0  0  0  0  0  0  0  0  0
  -11.0928  -36.4024   24.6493 C   0  0  0  0  0  0  0  0  0  0  0  0
  -12.4375  -36.2726   25.0567 C   0  0  0  0  0  0  0  0  0  0  0  0
  -12.9864  -34.9997   25.2892 C   0  0  0  0  0  0  0  0  0  0  0  0
  -12.2047  -33.8497   25.1512 C   0  0  0  0  0  0  0  0  0  0  0  0
  -12.8580  -32.5067   25.3271 C   0  0  0  0  0  0  0  0  0  0  0  0
  -13.7667  -32.3311   24.6818 O   0  0  0  0  0  0  0  0  0  0  0  0
  -11.9274  -31.4912   26.4590 N   0  0  0  0  0  0  0  0  0  0  0  0
  -12.4163  -30.2963   26.7251 C   0  0  0  0  0  0  0  0  0  0  0  0
  -14.3248  -30.4861   26.4906 C   0  0  0  0  0  0  0  0  0  0  0  0
  -14.9884  -31.2521   27.5184 O   0  0  0  0  0  0  0  0  0  0  0  0
  -11.7892  -29.4662   27.1617 C   0  0  0  0  0  0  0  0  0  0  0  0
  -11.7477  -28.5418   29.0744 C   0  0  0  0  0  0  0  0  0  0  0  0
  -12.1082  -29.3091   30.7850 C   0  0  0  0  0  0  0  0  0  0  0  0
  -12.3665  -29.3651   32.3520 C   0  0  0  0  0  0  0  0  0  0  0  0
  -12.1304  -28.2138   32.8538 C   0  0  0  0  0  0  0  0  0  0  0  0
  -11.6558  -27.6197   31.8042 N   0  0  0  0  0  0  0  0  0  0  0  0
  -12.1955  -28.0154   30.1741 C   0  0  0  0  0  0  0  0  0  0  0  0
  -10.8941  -33.9603   24.6600 C   0  0  0  0  0  0  0  0  0  0  0  0
  -10.3499  -35.2419   24.4371 C   0  0  0  0  0  0  0  0  0  0  0  0
   -8.7805  -35.6864   23.8824 S   0  0  0  0  0  0  0  0  0  0  0  0
   -7.1861  -38.1291   24.1781 H   0  0  0  0  0  0  0  0  0  0  0  0
   -8.4674  -39.3476   24.1952 H   0  0  0  0  0  0  0  0  0  0  0  0
   -8.0570  -38.5249   22.6804 H   0  0  0  0  0  0  0  0  0  0  0  0
  -13.0412  -37.1661   25.1863 H   0  0  0  0  0  0  0  0  0  0  0  0
  -14.0311  -34.9164   25.5823 H   0  0  0  0  0  0  0  0  0  0  0  0
  -12.7224  -30.1883   25.6886 H   0  0  0  0  0  0  0  0  0  0  0  0
  -13.0130  -31.0336   27.3668 H   0  0  0  0  0  0  0  0  0  0  0  0
  -14.6997  -30.9299   25.5855 H   0  0  0  0  0  0  0  0  0  0  0  0
  -14.7317  -29.4891   26.3375 H   0  0  0  0  0  0  0  0  0  0  0  0
  -14.7621  -32.1866   27.3580 H   0  0  0  0  0  0  0  0  0  0  0  0
  -11.6011  -28.3962   26.4949 H   0  0  0  0  0  0  0  0  0  0  0  0
  -10.5872  -29.4583   27.3095 H   0  0  0  0  0  0  0  0  0  0  0  0
  -12.3726  -30.4609   30.9676 H   0  0  0  0  0  0  0  0  0  0  0  0
  -12.6641  -30.2519   32.8893 H   0  0  0  0  0  0  0  0  0  0  0  0
  -12.1741  -27.8348   33.8468 H   0  0  0  0  0  0  0  0  0  0  0  0
  -13.2722  -28.2717   30.2103 H   0  0  0  0  0  0  0  0  0  0  0  0
  -10.2982  -33.0858   24.4351 H   0  0  0  0  0  0  0  0  0  0  0  0
  1  2  1  0
  2  3  2  0
  3  4  1  0
  4  5  2  0
  5  6  1  0
  6  7  2  0
  7  8  1  0
  8  9  2  0
  8 10  1  0
 10 11  1  0
 11 12  1  0
 12 13  1  0
 10 14  1  0
 14 15  1  0
 15 16  2  0
 16 17  1  0
 17 18  2  0
 18 19  1  0
 19 20  2  0
  7 21  1  0
 21 22  2  0
 22 23  1  0
 23  2  1  0
 22  4  1  0
 20 15  1  0
  1 24  1  0
  1 25  1  0
  1 26  1  0
  5 27  1  0
  6 28  1  0
 11 29  1  0
 11 30  1  0
 12 31  1  0
 12 32  1  0
 13 33  1  0
 14 34  1  0
 14 35  1  0
 16 36  1  0
 17 37  1  0
 18 38  1  0
 20 39  1  0
 21 40  1  0
M  END
>  <Energy>  (1322) 
1371.5168665797203

>  <compound_id>  (1322) 
6720

>  <target_id>  (1322) 
1

>  <reference_id>  (1322) 
68

>  <inspiration_ids>  (1322) 
[68, 82]

>  <energy_score>  (1322) 
1245.0432855911333

>  <distance_score>  (1322) 
4.119991034838536

>  <path>  (1322) 
/opt/xchem-fragalysis-2/maxwin/BulkDock/SCRATCH/511018/C6720-P68/C6720-P68.minimised.mol

>  <scratch_subdir>  (1322) 
/opt/xchem-fragalysis-2/maxwin/BulkDock/SCRATCH/511018/C6720-P68

>  <fragmenstein_runtime>  (1322) 
20.914618015289307

>  <fragmenstein_outcome>  (1322) 
too moved

>  <fragmenstein_mode>  (1322) 
expansion

>  <fragmenstein_error>  (1322) 


$$$$
C6720-P82
     RDKit          3D

 40 42  0  0  0  0  0  0  0  0999 V2000
   -6.7517  -35.8325   21.8917 C   0  0  0  0  0  0  0  0  0  0  0  0
   -7.9870  -35.6250   22.6958 C   0  0  0  0  0  0  0  0  0  0  0  0
   -8.2826  -36.2707   23.8050 N   0  0  0  0  0  0  0  0  0  0  0  0
   -9.5392  -35.8871   24.2496 C   0  0  0  0  0  0  0  0  0  0  0  0
  -10.2138  -36.4004   25.3772 C   0  0  0  0  0  0  0  0  0  0  0  0
  -11.5120  -35.9625   25.6758 C   0  0  0  0  0  0  0  0  0  0  0  0
  -12.1309  -34.9942   24.8849 C   0  0  0  0  0  0  0  0  0  0  0  0
  -13.5582  -34.6483   25.1438 C   0  0  0  0  0  0  0  0  0  0  0  0
  -14.3334  -35.5106   25.1169 O   0  0  0  0  0  0  0  0  0  0  0  0
  -13.7037  -33.1358   25.3618 N   0  0  0  0  0  0  0  0  0  0  0  0
  -15.4423  -32.1959   25.4670 C   0  0  0  0  0  0  0  0  0  0  0  0
  -16.2250  -32.8653   24.0580 C   0  0  0  0  0  0  0  0  0  0  0  0
  -17.3959  -32.1104   23.8036 O   0  0  0  0  0  0  0  0  0  0  0  0
  -14.6823  -32.3518   25.6975 C   0  0  0  0  0  0  0  0  0  0  0  0
  -14.1437  -31.3113   27.1367 C   0  0  0  0  0  0  0  0  0  0  0  0
  -13.4384  -30.1142   26.9482 C   0  0  0  0  0  0  0  0  0  0  0  0
  -13.0026  -29.4402   28.0737 C   0  0  0  0  0  0  0  0  0  0  0  0
  -13.2942  -29.9875   29.3195 C   0  0  0  0  0  0  0  0  0  0  0  0
  -14.0476  -31.0788   29.5353 N   0  0  0  0  0  0  0  0  0  0  0  0
  -14.4749  -31.7197   28.4356 C   0  0  0  0  0  0  0  0  0  0  0  0
  -11.4725  -34.4501   23.7756 C   0  0  0  0  0  0  0  0  0  0  0  0
  -10.1806  -34.9193   23.4734 C   0  0  0  0  0  0  0  0  0  0  0  0
   -9.1548  -34.4860   22.1624 S   0  0  0  0  0  0  0  0  0  0  0  0
   -6.9719  -35.8495   20.8192 H   0  0  0  0  0  0  0  0  0  0  0  0
   -6.0255  -35.0388   22.0825 H   0  0  0  0  0  0  0  0  0  0  0  0
   -6.2930  -36.7929   22.1438 H   0  0  0  0  0  0  0  0  0  0  0  0
   -9.7343  -37.1594   25.9876 H   0  0  0  0  0  0  0  0  0  0  0  0
  -12.0423  -36.3941   26.5229 H   0  0  0  0  0  0  0  0  0  0  0  0
  -15.6297  -30.9924   25.1404 H   0  0  0  0  0  0  0  0  0  0  0  0
  -16.3468  -32.5558   26.2472 H   0  0  0  0  0  0  0  0  0  0  0  0
  -16.4774  -33.9106   24.2629 H   0  0  0  0  0  0  0  0  0  0  0  0
  -15.5438  -32.7868   23.2040 H   0  0  0  0  0  0  0  0  0  0  0  0
  -17.9118  -32.5996   23.1360 H   0  0  0  0  0  0  0  0  0  0  0  0
  -14.6415  -33.1817   26.6439 H   0  0  0  0  0  0  0  0  0  0  0  0
  -13.8438  -31.5948   25.1676 H   0  0  0  0  0  0  0  0  0  0  0  0
  -13.2003  -29.7277   25.9645 H   0  0  0  0  0  0  0  0  0  0  0  0
  -12.4069  -28.5374   27.9854 H   0  0  0  0  0  0  0  0  0  0  0  0
  -12.8910  -29.5534   30.2257 H   0  0  0  0  0  0  0  0  0  0  0  0
  -15.0740  -32.6042   28.6316 H   0  0  0  0  0  0  0  0  0  0  0  0
  -11.9662  -33.7364   23.1294 H   0  0  0  0  0  0  0  0  0  0  0  0
  1  2  1  0
  2  3  2  0
  3  4  1  0
  4  5  2  0
  5  6  1  0
  6  7  2  0
  7  8  1  0
  8  9  2  0
  8 10  1  0
 10 11  1  0
 11 12  1  0
 12 13  1  0
 10 14  1  0
 14 15  1  0
 15 16  2  0
 16 17  1  0
 17 18  2  0
 18 19  1  0
 19 20  2  0
  7 21  1  0
 21 22  2  0
 22 23  1  0
 23  2  1  0
 22  4  1  0
 20 15  1  0
  1 24  1  0
  1 25  1  0
  1 26  1  0
  5 27  1  0
  6 28  1  0
 11 29  1  0
 11 30  1  0
 12 31  1  0
 12 32  1  0
 13 33  1  0
 14 34  1  0
 14 35  1  0
 16 36  1  0
 17 37  1  0
 18 38  1  0
 20 39  1  0
 21 40  1  0
M  END
>  <Energy>  (1323) 
828.25662711521704

>  <compound_id>  (1323) 
6720

>  <target_id>  (1323) 
1

>  <reference_id>  (1323) 
82

>  <inspiration_ids>  (1323) 
[68, 82]

>  <energy_score>  (1323) 
701.7830461266401

>  <distance_score>  (1323) 
5.111500414748083

>  <path>  (1323) 
/opt/xchem-fragalysis-2/maxwin/BulkDock/SCRATCH/511018/C6720-P82/C6720-P82.minimised.mol

>  <scratch_subdir>  (1323) 
/opt/xchem-fragalysis-2/maxwin/BulkDock/SCRATCH/511018/C6720-P82

>  <fragmenstein_runtime>  (1323) 
12.065483331680298

>  <fragmenstein_outcome>  (1323) 
too moved

>  <fragmenstein_mode>  (1323) 
expansion

>  <fragmenstein_error>  (1323) 


$$$$
C6721-P68
     RDKit          3D

 37 39  0  0  0  0  0  0  0  0999 V2000
   -6.8734  -28.9763   28.9865 C   0  0  0  0  0  0  0  0  0  0  0  0
   -8.4084  -29.9511   29.4441 N   0  0  0  0  0  0  0  0  0  0  0  0
   -9.0973  -31.6254   28.3838 C   0  0  0  0  0  0  0  0  0  0  0  0
   -8.9508  -33.5182   27.5455 C   0  0  0  0  0  0  0  0  0  0  0  0
   -8.9988  -34.8408   27.7971 N   0  0  0  0  0  0  0  0  0  0  0  0
   -9.3691  -35.7232   26.6197 C   0  0  0  0  0  0  0  0  0  0  0  0
   -9.8196  -37.0700   26.5738 C   0  0  0  0  0  0  0  0  0  0  0  0
  -10.3133  -37.6725   25.4017 C   0  0  0  0  0  0  0  0  0  0  0  0
  -10.3404  -36.9736   24.2124 C   0  0  0  0  0  0  0  0  0  0  0  0
   -9.8109  -35.6947   24.1752 C   0  0  0  0  0  0  0  0  0  0  0  0
   -9.3235  -35.1430   25.3760 C   0  0  0  0  0  0  0  0  0  0  0  0
   -8.3125  -33.8344   25.5396 S   0  0  0  0  0  0  0  0  0  0  0  0
   -9.0720  -28.6120   29.3404 C   0  0  0  0  0  0  0  0  0  0  0  0
   -9.8561  -28.2478   28.0768 C   0  0  0  0  0  0  0  0  0  0  0  0
  -10.6409  -27.3539   27.8820 O   0  0  0  0  0  0  0  0  0  0  0  0
   -9.6961  -29.0543   27.0922 O   0  0  0  0  0  0  0  0  0  0  0  0
   -9.5754  -27.8106   30.5012 C   0  0  0  0  0  0  0  0  0  0  0  0
   -8.6217  -26.4794   30.7168 C   0  0  0  0  0  0  0  0  0  0  0  0
   -8.8109  -25.3057   31.6451 C   0  0  0  0  0  0  0  0  0  0  0  0
   -9.8513  -25.4416   32.5799 C   0  0  0  0  0  0  0  0  0  0  0  0
  -10.9085  -26.8379   32.6990 N   0  0  0  0  0  0  0  0  0  0  0  0
  -10.7860  -27.9734   31.6327 C   0  0  0  0  0  0  0  0  0  0  0  0
   -6.9815  -28.6355   27.9450 H   0  0  0  0  0  0  0  0  0  0  0  0
   -6.6304  -27.9833   29.3853 H   0  0  0  0  0  0  0  0  0  0  0  0
   -5.9262  -29.4123   29.1945 H   0  0  0  0  0  0  0  0  0  0  0  0
   -9.4115  -32.2749   29.2627 H   0  0  0  0  0  0  0  0  0  0  0  0
   -9.9179  -31.1614   27.8717 H   0  0  0  0  0  0  0  0  0  0  0  0
   -9.8304  -37.6959   27.4443 H   0  0  0  0  0  0  0  0  0  0  0  0
  -10.6639  -38.7018   25.4392 H   0  0  0  0  0  0  0  0  0  0  0  0
  -10.7079  -37.4430   23.3042 H   0  0  0  0  0  0  0  0  0  0  0  0
   -9.7089  -35.1619   23.2346 H   0  0  0  0  0  0  0  0  0  0  0  0
   -8.2442  -28.1195   29.6245 H   0  0  0  0  0  0  0  0  0  0  0  0
  -10.1681  -28.5117   26.4234 H   0  0  0  0  0  0  0  0  0  0  0  0
   -9.0549  -26.7911   31.6379 H   0  0  0  0  0  0  0  0  0  0  0  0
   -8.7975  -24.4150   31.1602 H   0  0  0  0  0  0  0  0  0  0  0  0
  -10.3672  -24.4848   32.6475 H   0  0  0  0  0  0  0  0  0  0  0  0
  -11.5428  -28.7401   31.7044 H   0  0  0  0  0  0  0  0  0  0  0  0
  1  2  1  0
  2  3  1  0
  3  4  1  0
  4  5  2  0
  5  6  1  0
  6  7  2  0
  7  8  1  0
  8  9  2  0
  9 10  1  0
 10 11  2  0
 11 12  1  0
  2 13  1  0
 13 14  1  0
 14 15  2  0
 14 16  1  0
 13 17  1  0
 17 18  2  0
 18 19  1  0
 19 20  2  0
 20 21  1  0
 21 22  2  0
 12  4  1  0
 22 17  1  0
 11  6  1  0
  1 23  1  0
  1 24  1  0
  1 25  1  0
  3 26  1  0
  3 27  1  0
  7 28  1  0
  8 29  1  0
  9 30  1  0
 10 31  1  0
 13 32  1  0
 16 33  1  0
 18 34  1  0
 19 35  1  0
 20 36  1  0
 22 37  1  0
M  END
>  <Energy>  (1324) 
806.35400979642964

>  <compound_id>  (1324) 
6721

>  <target_id>  (1324) 
1

>  <reference_id>  (1324) 
68

>  <inspiration_ids>  (1324) 
[68, 82]

>  <energy_score>  (1324) 
622.1610733672833

>  <distance_score>  (1324) 
3.823980500801168

>  <path>  (1324) 
/opt/xchem-fragalysis-2/maxwin/BulkDock/SCRATCH/511018/C6721-P68/C6721-P68.minimised.mol

>  <scratch_subdir>  (1324) 
/opt/xchem-fragalysis-2/maxwin/BulkDock/SCRATCH/511018/C6721-P68

>  <fragmenstein_runtime>  (1324) 
10.523790836334229

>  <fragmenstein_outcome>  (1324) 
too moved

>  <fragmenstein_mode>  (1324) 
expansion

>  <fragmenstein_error>  (1324) 


$$$$
C6721-P82
     RDKit          3D

 37 39  0  0  0  0  0  0  0  0999 V2000
   -6.4073  -32.6700   29.8479 C   0  0  0  0  0  0  0  0  0  0  0  0
   -7.8695  -32.4847   29.5323 N   0  0  0  0  0  0  0  0  0  0  0  0
   -8.0202  -34.0950   30.3672 C   0  0  0  0  0  0  0  0  0  0  0  0
   -7.8489  -35.5899   29.7236 C   0  0  0  0  0  0  0  0  0  0  0  0
   -8.8713  -36.4316   29.6816 N   0  0  0  0  0  0  0  0  0  0  0  0
   -8.6837  -37.3361   28.6565 C   0  0  0  0  0  0  0  0  0  0  0  0
   -9.6929  -38.0739   28.0074 C   0  0  0  0  0  0  0  0  0  0  0  0
   -9.3656  -38.8766   26.9131 C   0  0  0  0  0  0  0  0  0  0  0  0
   -8.0422  -38.9947   26.5048 C   0  0  0  0  0  0  0  0  0  0  0  0
   -7.0187  -38.3136   27.1749 C   0  0  0  0  0  0  0  0  0  0  0  0
   -7.3652  -37.4528   28.2263 C   0  0  0  0  0  0  0  0  0  0  0  0
   -6.3989  -36.3743   29.1889 S   0  0  0  0  0  0  0  0  0  0  0  0
   -8.5309  -30.6916   28.7361 C   0  0  0  0  0  0  0  0  0  0  0  0
   -9.4908  -30.7121   27.0600 C   0  0  0  0  0  0  0  0  0  0  0  0
   -9.0328  -30.4740   25.9592 O   0  0  0  0  0  0  0  0  0  0  0  0
  -10.8430  -30.9231   27.1332 O   0  0  0  0  0  0  0  0  0  0  0  0
   -8.5143  -28.7009   30.0288 C   0  0  0  0  0  0  0  0  0  0  0  0
   -9.5144  -28.3676   31.1718 C   0  0  0  0  0  0  0  0  0  0  0  0
  -10.2851  -27.1313   31.4361 C   0  0  0  0  0  0  0  0  0  0  0  0
  -10.3650  -26.0455   30.5998 C   0  0  0  0  0  0  0  0  0  0  0  0
   -9.7549  -26.0548   29.4390 N   0  0  0  0  0  0  0  0  0  0  0  0
   -8.9921  -27.1944   29.2262 C   0  0  0  0  0  0  0  0  0  0  0  0
   -6.1745  -33.7241   29.7507 H   0  0  0  0  0  0  0  0  0  0  0  0
   -5.9860  -32.4913   30.8544 H   0  0  0  0  0  0  0  0  0  0  0  0
   -5.8470  -32.2093   29.1172 H   0  0  0  0  0  0  0  0  0  0  0  0
   -7.2473  -34.1285   31.1406 H   0  0  0  0  0  0  0  0  0  0  0  0
   -8.9607  -34.3196   30.8935 H   0  0  0  0  0  0  0  0  0  0  0  0
  -10.7237  -37.9670   28.3314 H   0  0  0  0  0  0  0  0  0  0  0  0
  -10.1495  -39.4163   26.3873 H   0  0  0  0  0  0  0  0  0  0  0  0
   -7.7957  -39.6359   25.6606 H   0  0  0  0  0  0  0  0  0  0  0  0
   -5.9897  -38.4339   26.8651 H   0  0  0  0  0  0  0  0  0  0  0  0
   -8.2186  -29.3111   29.7888 H   0  0  0  0  0  0  0  0  0  0  0  0
  -11.1771  -30.8618   28.0341 H   0  0  0  0  0  0  0  0  0  0  0  0
   -9.7947  -29.1764   31.8597 H   0  0  0  0  0  0  0  0  0  0  0  0
  -10.7970  -27.0519   32.3899 H   0  0  0  0  0  0  0  0  0  0  0  0
  -10.9442  -25.1645   30.8497 H   0  0  0  0  0  0  0  0  0  0  0  0
   -8.5071  -26.9973   28.2453 H   0  0  0  0  0  0  0  0  0  0  0  0
  1  2  1  0
  2  3  1  0
  3  4  1  0
  4  5  2  0
  5  6  1  0
  6  7  2  0
  7  8  1  0
  8  9  2  0
  9 10  1  0
 10 11  2  0
 11 12  1  0
  2 13  1  0
 13 14  1  0
 14 15  2  0
 14 16  1  0
 13 17  1  0
 17 18  2  0
 18 19  1  0
 19 20  2  0
 20 21  1  0
 21 22  2  0
 12  4  1  0
 22 17  1  0
 11  6  1  0
  1 23  1  0
  1 24  1  0
  1 25  1  0
  3 26  1  0
  3 27  1  0
  7 28  1  0
  8 29  1  0
  9 30  1  0
 10 31  1  0
 13 32  1  0
 16 33  1  0
 18 34  1  0
 19 35  1  0
 20 36  1  0
 22 37  1  0
M  END
>  <Energy>  (1325) 
1110.5421440107173

>  <compound_id>  (1325) 
6721

>  <target_id>  (1325) 
1

>  <reference_id>  (1325) 
82

>  <inspiration_ids>  (1325) 
[68, 82]

>  <energy_score>  (1325) 
926.3492075815766

>  <distance_score>  (1325) 
5.57613735016883

>  <path>  (1325) 
/opt/xchem-fragalysis-2/maxwin/BulkDock/SCRATCH/511018/C6721-P82/C6721-P82.minimised.mol

>  <scratch_subdir>  (1325) 
/opt/xchem-fragalysis-2/maxwin/BulkDock/SCRATCH/511018/C6721-P82

>  <fragmenstein_runtime>  (1325) 
10.665340662002563

>  <fragmenstein_outcome>  (1325) 
too moved

>  <fragmenstein_mode>  (1325) 
expansion

>  <fragmenstein_error>  (1325) 


$$$$
C6722-P68
     RDKit          3D

 29 31  0  0  0  0  0  0  0  0999 V2000
  -11.5771  -34.5996   23.6738 O   0  0  0  0  0  0  0  0  0  0  0  0
  -10.7090  -35.4563   23.8957 N   0  0  0  0  0  0  0  0  0  0  0  0
  -10.4106  -36.3804   23.1270 O   0  0  0  0  0  0  0  0  0  0  0  0
  -10.0010  -35.3843   25.1689 C   0  0  0  0  0  0  0  0  0  0  0  0
   -9.4129  -36.4784   25.7118 C   0  0  0  0  0  0  0  0  0  0  0  0
   -8.8191  -36.3416   26.9731 C   0  0  0  0  0  0  0  0  0  0  0  0
   -8.7037  -35.1065   27.7542 C   0  0  0  0  0  0  0  0  0  0  0  0
   -7.7779  -34.4797   29.4458 S   0  0  0  0  0  0  0  0  0  0  0  0
   -9.0894  -32.8322   29.5722 C   0  0  0  0  0  0  0  0  0  0  0  0
   -9.6418  -32.3426   31.1030 C   0  0  0  0  0  0  0  0  0  0  0  0
  -10.6381  -32.8021   31.9182 C   0  0  0  0  0  0  0  0  0  0  0  0
  -11.3880  -31.9666   32.9115 C   0  0  0  0  0  0  0  0  0  0  0  0
  -12.7720  -32.1252   33.0560 C   0  0  0  0  0  0  0  0  0  0  0  0
  -13.5248  -31.2632   33.8578 C   0  0  0  0  0  0  0  0  0  0  0  0
  -12.8607  -30.2853   34.5639 C   0  0  0  0  0  0  0  0  0  0  0  0
  -11.5300  -30.1387   34.5126 N   0  0  0  0  0  0  0  0  0  0  0  0
  -10.8493  -30.9525   33.6742 C   0  0  0  0  0  0  0  0  0  0  0  0
   -9.5660  -32.8441   28.3177 N   0  0  0  0  0  0  0  0  0  0  0  0
   -9.3513  -34.0335   27.2649 C   0  0  0  0  0  0  0  0  0  0  0  0
  -10.0169  -34.2267   25.9291 C   0  0  0  0  0  0  0  0  0  0  0  0
   -9.3887  -37.4407   25.2053 H   0  0  0  0  0  0  0  0  0  0  0  0
   -8.3559  -37.2625   27.2672 H   0  0  0  0  0  0  0  0  0  0  0  0
   -9.2854  -31.3705   31.3971 H   0  0  0  0  0  0  0  0  0  0  0  0
  -11.1489  -33.7441   31.7462 H   0  0  0  0  0  0  0  0  0  0  0  0
  -13.2952  -32.9020   32.5022 H   0  0  0  0  0  0  0  0  0  0  0  0
  -14.6003  -31.3686   33.9323 H   0  0  0  0  0  0  0  0  0  0  0  0
  -13.3827  -29.5892   35.2119 H   0  0  0  0  0  0  0  0  0  0  0  0
   -9.8064  -30.7003   33.6137 H   0  0  0  0  0  0  0  0  0  0  0  0
  -10.6608  -33.4335   25.5431 H   0  0  0  0  0  0  0  0  0  0  0  0
  1  2  2  0
  2  3  1  0
  2  4  1  0
  4  5  2  0
  5  6  1  0
  6  7  2  0
  7  8  1  0
  8  9  1  0
  9 10  1  0
 10 11  2  3
 11 12  1  0
 12 13  2  0
 13 14  1  0
 14 15  2  0
 15 16  1  0
 16 17  2  0
  9 18  2  0
 18 19  1  0
 19 20  2  0
 20  4  1  0
 19  7  1  0
 17 12  1  0
  5 21  1  0
  6 22  1  0
 10 23  1  0
 11 24  1  0
 13 25  1  0
 14 26  1  0
 15 27  1  0
 17 28  1  0
 20 29  1  0
M  CHG  2   2   1   3  -1
M  END
>  <Energy>  (1326) 
189.93769191374645

>  <compound_id>  (1326) 
6722

>  <target_id>  (1326) 
1

>  <reference_id>  (1326) 
68

>  <inspiration_ids>  (1326) 
[68, 82]

>  <energy_score>  (1326) 
59.11143029008281

>  <distance_score>  (1326) 
6.342499839502599

>  <path>  (1326) 
/opt/xchem-fragalysis-2/maxwin/BulkDock/SCRATCH/511018/C6722-P68/C6722-P68.minimised.mol

>  <scratch_subdir>  (1326) 
/opt/xchem-fragalysis-2/maxwin/BulkDock/SCRATCH/511018/C6722-P68

>  <fragmenstein_runtime>  (1326) 
6.492110967636108

>  <fragmenstein_outcome>  (1326) 
too moved

>  <fragmenstein_mode>  (1326) 
expansion

>  <fragmenstein_error>  (1326) 


$$$$
C6722-P82
     RDKit          3D

 29 31  0  0  0  0  0  0  0  0999 V2000
  -12.2167  -35.7167   24.1771 O   0  0  0  0  0  0  0  0  0  0  0  0
  -11.2196  -35.9475   23.4701 N   0  0  0  0  0  0  0  0  0  0  0  0
  -11.0309  -36.9735   22.8036 O   0  0  0  0  0  0  0  0  0  0  0  0
  -10.2096  -34.9008   23.4136 C   0  0  0  0  0  0  0  0  0  0  0  0
   -9.4367  -34.7006   22.2731 C   0  0  0  0  0  0  0  0  0  0  0  0
   -8.6517  -33.5397   22.1513 C   0  0  0  0  0  0  0  0  0  0  0  0
   -8.7077  -32.5776   23.1824 C   0  0  0  0  0  0  0  0  0  0  0  0
   -8.1567  -30.9033   23.1969 S   0  0  0  0  0  0  0  0  0  0  0  0
   -8.9354  -30.5775   24.9124 C   0  0  0  0  0  0  0  0  0  0  0  0
   -9.1558  -29.1539   25.5487 C   0  0  0  0  0  0  0  0  0  0  0  0
  -10.2876  -28.3383   25.8017 C   0  0  0  0  0  0  0  0  0  0  0  0
  -10.6633  -26.9728   26.7646 C   0  0  0  0  0  0  0  0  0  0  0  0
  -11.9754  -26.5008   26.8002 C   0  0  0  0  0  0  0  0  0  0  0  0
  -12.3990  -25.5852   27.7853 C   0  0  0  0  0  0  0  0  0  0  0  0
  -11.5380  -25.1632   28.7825 C   0  0  0  0  0  0  0  0  0  0  0  0
  -10.2623  -25.5459   28.8156 N   0  0  0  0  0  0  0  0  0  0  0  0
   -9.8792  -26.3939   27.8121 C   0  0  0  0  0  0  0  0  0  0  0  0
   -9.4675  -31.7560   25.2940 N   0  0  0  0  0  0  0  0  0  0  0  0
   -9.4092  -32.8310   24.3545 C   0  0  0  0  0  0  0  0  0  0  0  0
  -10.1594  -34.0164   24.4806 C   0  0  0  0  0  0  0  0  0  0  0  0
   -9.4754  -35.3970   21.4375 H   0  0  0  0  0  0  0  0  0  0  0  0
   -8.1052  -33.3227   21.2359 H   0  0  0  0  0  0  0  0  0  0  0  0
   -8.1899  -28.7751   25.8234 H   0  0  0  0  0  0  0  0  0  0  0  0
  -11.2578  -28.6627   25.4432 H   0  0  0  0  0  0  0  0  0  0  0  0
  -12.6976  -26.8543   26.0683 H   0  0  0  0  0  0  0  0  0  0  0  0
  -13.4120  -25.2184   27.7703 H   0  0  0  0  0  0  0  0  0  0  0  0
  -11.8670  -24.4863   29.5652 H   0  0  0  0  0  0  0  0  0  0  0  0
   -8.8367  -26.6732   27.9199 H   0  0  0  0  0  0  0  0  0  0  0  0
  -10.7948  -34.1502   25.3505 H   0  0  0  0  0  0  0  0  0  0  0  0
  1  2  2  0
  2  3  1  0
  2  4  1  0
  4  5  2  0
  5  6  1  0
  6  7  2  0
  7  8  1  0
  8  9  1  0
  9 10  1  0
 10 11  2  3
 11 12  1  0
 12 13  2  0
 13 14  1  0
 14 15  2  0
 15 16  1  0
 16 17  2  0
  9 18  2  0
 18 19  1  0
 19 20  2  0
 20  4  1  0
 19  7  1  0
 17 12  1  0
  5 21  1  0
  6 22  1  0
 10 23  1  0
 11 24  1  0
 13 25  1  0
 14 26  1  0
 15 27  1  0
 17 28  1  0
 20 29  1  0
M  CHG  2   2   1   3  -1
M  END
>  <Energy>  (1327) 
137.32510677782764

>  <compound_id>  (1327) 
6722

>  <target_id>  (1327) 
1

>  <reference_id>  (1327) 
82

>  <inspiration_ids>  (1327) 
[68, 82]

>  <energy_score>  (1327) 
6.062755351300666

>  <distance_score>  (1327) 
4.458765070346418

>  <path>  (1327) 
/opt/xchem-fragalysis-2/maxwin/BulkDock/SCRATCH/511018/C6722-P82/C6722-P82.minimised.mol

>  <scratch_subdir>  (1327) 
/opt/xchem-fragalysis-2/maxwin/BulkDock/SCRATCH/511018/C6722-P82

>  <fragmenstein_runtime>  (1327) 
1.3945772647857666

>  <fragmenstein_outcome>  (1327) 
too moved

>  <fragmenstein_mode>  (1327) 
expansion

>  <fragmenstein_error>  (1327) 


$$$$
C6723-P68
     RDKit          3D

 41 46  0  0  0  0  0  0  0  0999 V2000
  -10.9117  -22.4997   29.8830 C   0  0  0  0  0  0  0  0  0  0  0  0
  -10.7201  -23.4577   31.1858 C   0  0  0  0  0  0  0  0  0  0  0  0
   -9.5221  -24.3999   31.5105 N   0  0  0  0  0  0  0  0  0  0  0  0
   -8.6669  -24.7864   30.2654 C   0  0  0  0  0  0  0  0  0  0  0  0
   -9.4615  -24.3805   28.7778 C   0  0  0  0  0  0  0  0  0  0  0  0
   -9.7828  -25.2539   27.5580 C   0  0  0  0  0  0  0  0  0  0  0  0
   -9.7402  -24.6031   26.4179 N   0  0  0  0  0  0  0  0  0  0  0  0
  -10.5092  -25.2398   25.5752 N   0  0  0  0  0  0  0  0  0  0  0  0
  -10.9362  -26.3267   26.0869 C   0  0  0  0  0  0  0  0  0  0  0  0
  -12.2161  -27.2937   25.7007 S   0  0  0  0  0  0  0  0  0  0  0  0
  -11.4722  -28.7527   26.8899 C   0  0  0  0  0  0  0  0  0  0  0  0
  -12.6483  -30.4283   26.4337 C   0  0  0  0  0  0  0  0  0  0  0  0
  -14.1583  -30.3386   26.3612 C   0  0  0  0  0  0  0  0  0  0  0  0
  -15.2479  -31.2823   26.3114 C   0  0  0  0  0  0  0  0  0  0  0  0
  -15.0162  -32.6061   26.3886 C   0  0  0  0  0  0  0  0  0  0  0  0
  -13.7092  -32.9387   26.2162 C   0  0  0  0  0  0  0  0  0  0  0  0
  -12.5885  -31.9739   26.0474 C   0  0  0  0  0  0  0  0  0  0  0  0
  -11.6588  -32.9256   25.1634 C   0  0  0  0  0  0  0  0  0  0  0  0
  -10.9388  -33.9304   25.6179 N   0  0  0  0  0  0  0  0  0  0  0  0
  -10.3513  -34.6529   24.5940 C   0  0  0  0  0  0  0  0  0  0  0  0
   -9.4188  -35.6953   24.7518 C   0  0  0  0  0  0  0  0  0  0  0  0
   -8.9049  -36.3398   23.6241 C   0  0  0  0  0  0  0  0  0  0  0  0
   -9.3222  -35.9695   22.3496 C   0  0  0  0  0  0  0  0  0  0  0  0
  -10.2637  -34.9525   22.1698 C   0  0  0  0  0  0  0  0  0  0  0  0
  -10.7626  -34.3059   23.3112 C   0  0  0  0  0  0  0  0  0  0  0  0
  -11.9382  -33.0590   23.4236 S   0  0  0  0  0  0  0  0  0  0  0  0
  -10.5258  -28.1721   27.6676 N   0  0  0  0  0  0  0  0  0  0  0  0
  -10.2950  -26.6761   27.1918 N   0  0  0  0  0  0  0  0  0  0  0  0
  -10.3598  -23.0910   28.6692 C   0  0  0  0  0  0  0  0  0  0  0  0
  -11.6454  -21.7012   29.8773 H   0  0  0  0  0  0  0  0  0  0  0  0
  -11.1729  -23.1141   32.0632 H   0  0  0  0  0  0  0  0  0  0  0  0
   -8.1335  -25.7143   30.5153 H   0  0  0  0  0  0  0  0  0  0  0  0
  -14.6036  -29.3406   26.2644 H   0  0  0  0  0  0  0  0  0  0  0  0
  -16.2769  -30.9343   26.2348 H   0  0  0  0  0  0  0  0  0  0  0  0
  -15.8063  -33.3457   26.4250 H   0  0  0  0  0  0  0  0  0  0  0  0
  -13.5188  -34.0105   26.0838 H   0  0  0  0  0  0  0  0  0  0  0  0
   -9.0972  -35.9824   25.7477 H   0  0  0  0  0  0  0  0  0  0  0  0
   -8.1733  -37.1355   23.7485 H   0  0  0  0  0  0  0  0  0  0  0  0
   -8.9135  -36.4812   21.4803 H   0  0  0  0  0  0  0  0  0  0  0  0
  -10.5972  -34.6721   21.1749 H   0  0  0  0  0  0  0  0  0  0  0  0
  -10.8640  -22.8402   27.7369 H   0  0  0  0  0  0  0  0  0  0  0  0
  1  2  2  0
  2  3  1  0
  3  4  2  0
  4  5  1  0
  5  6  1  0
  6  7  2  0
  7  8  1  0
  8  9  2  0
  9 10  1  0
 10 11  1  0
 11 12  1  0
 12 13  2  0
 13 14  1  0
 14 15  2  0
 15 16  1  0
 16 17  2  0
 17 18  1  0
 18 19  2  0
 19 20  1  0
 20 21  2  0
 21 22  1  0
 22 23  2  0
 23 24  1  0
 24 25  2  0
 25 26  1  0
 11 27  2  0
 27 28  1  0
  5 29  2  0
 29  1  1  0
 28  6  1  0
 28  9  1  0
 17 12  1  0
 26 18  1  0
 25 20  1  0
  1 30  1  0
  2 31  1  0
  4 32  1  0
 13 33  1  0
 14 34  1  0
 15 35  1  0
 16 36  1  0
 21 37  1  0
 22 38  1  0
 23 39  1  0
 24 40  1  0
 29 41  1  0
M  END
>  <Energy>  (1328) 
541.28683585180238

>  <compound_id>  (1328) 
6723

>  <target_id>  (1328) 
1

>  <reference_id>  (1328) 
68

>  <inspiration_ids>  (1328) 
[68, 82]

>  <energy_score>  (1328) 
305.4776312768879

>  <distance_score>  (1328) 
3.4862256533494618

>  <path>  (1328) 
/opt/xchem-fragalysis-2/maxwin/BulkDock/SCRATCH/511018/C6723-P68/C6723-P68.minimised.mol

>  <scratch_subdir>  (1328) 
/opt/xchem-fragalysis-2/maxwin/BulkDock/SCRATCH/511018/C6723-P68

>  <fragmenstein_runtime>  (1328) 
8.21950078010559

>  <fragmenstein_outcome>  (1328) 
too moved

>  <fragmenstein_mode>  (1328) 
expansion

>  <fragmenstein_error>  (1328) 


$$$$
C6723-P82
     RDKit          3D

 41 46  0  0  0  0  0  0  0  0999 V2000
  -11.7446  -23.8612   30.7007 C   0  0  0  0  0  0  0  0  0  0  0  0
  -11.1335  -24.6499   31.6528 C   0  0  0  0  0  0  0  0  0  0  0  0
  -10.6590  -25.8808   31.3898 N   0  0  0  0  0  0  0  0  0  0  0  0
  -10.8691  -26.3699   30.1381 C   0  0  0  0  0  0  0  0  0  0  0  0
  -11.5132  -25.6907   29.1185 C   0  0  0  0  0  0  0  0  0  0  0  0
  -11.8267  -26.2514   27.8032 C   0  0  0  0  0  0  0  0  0  0  0  0
  -11.8273  -25.5458   26.6707 N   0  0  0  0  0  0  0  0  0  0  0  0
  -12.3897  -26.2998   25.6559 N   0  0  0  0  0  0  0  0  0  0  0  0
  -12.6818  -27.4444   26.1931 C   0  0  0  0  0  0  0  0  0  0  0  0
  -13.5410  -28.8462   25.7295 S   0  0  0  0  0  0  0  0  0  0  0  0
  -13.2785  -29.4619   27.3647 C   0  0  0  0  0  0  0  0  0  0  0  0
  -13.9571  -30.7401   27.7659 C   0  0  0  0  0  0  0  0  0  0  0  0
  -14.6179  -30.6095   29.0154 C   0  0  0  0  0  0  0  0  0  0  0  0
  -15.4348  -31.6037   29.5504 C   0  0  0  0  0  0  0  0  0  0  0  0
  -15.6122  -32.7773   28.8510 C   0  0  0  0  0  0  0  0  0  0  0  0
  -14.9498  -32.9507   27.6362 C   0  0  0  0  0  0  0  0  0  0  0  0
  -14.1110  -31.9558   27.0477 C   0  0  0  0  0  0  0  0  0  0  0  0
  -13.3982  -32.4115   25.8157 C   0  0  0  0  0  0  0  0  0  0  0  0
  -12.0924  -32.4893   25.6532 N   0  0  0  0  0  0  0  0  0  0  0  0
  -11.7769  -33.3954   24.6264 C   0  0  0  0  0  0  0  0  0  0  0  0
  -10.4884  -33.7794   24.1958 C   0  0  0  0  0  0  0  0  0  0  0  0
  -10.3260  -34.6934   23.1513 C   0  0  0  0  0  0  0  0  0  0  0  0
  -11.4356  -35.2267   22.5122 C   0  0  0  0  0  0  0  0  0  0  0  0
  -12.7246  -34.8424   22.8882 C   0  0  0  0  0  0  0  0  0  0  0  0
  -12.8695  -33.9187   23.9389 C   0  0  0  0  0  0  0  0  0  0  0  0
  -14.3021  -33.2039   24.5593 S   0  0  0  0  0  0  0  0  0  0  0  0
  -12.6749  -28.6475   28.2121 N   0  0  0  0  0  0  0  0  0  0  0  0
  -12.3314  -27.5097   27.4989 N   0  0  0  0  0  0  0  0  0  0  0  0
  -11.8959  -24.3790   29.4149 C   0  0  0  0  0  0  0  0  0  0  0  0
  -12.1017  -22.8673   30.9413 H   0  0  0  0  0  0  0  0  0  0  0  0
  -10.9984  -24.3021   32.6714 H   0  0  0  0  0  0  0  0  0  0  0  0
  -10.4927  -27.3723   30.0091 H   0  0  0  0  0  0  0  0  0  0  0  0
  -14.5327  -29.6981   29.5964 H   0  0  0  0  0  0  0  0  0  0  0  0
  -15.9345  -31.4486   30.5041 H   0  0  0  0  0  0  0  0  0  0  0  0
  -16.2407  -33.5699   29.2508 H   0  0  0  0  0  0  0  0  0  0  0  0
  -15.0693  -33.9245   27.1576 H   0  0  0  0  0  0  0  0  0  0  0  0
   -9.6131  -33.3198   24.6361 H   0  0  0  0  0  0  0  0  0  0  0  0
   -9.3232  -34.9588   22.8219 H   0  0  0  0  0  0  0  0  0  0  0  0
  -11.2987  -35.9269   21.6909 H   0  0  0  0  0  0  0  0  0  0  0  0
  -13.5915  -35.2347   22.3653 H   0  0  0  0  0  0  0  0  0  0  0  0
  -12.3618  -23.7605   28.6510 H   0  0  0  0  0  0  0  0  0  0  0  0
  1  2  2  0
  2  3  1  0
  3  4  2  0
  4  5  1  0
  5  6  1  0
  6  7  2  0
  7  8  1  0
  8  9  2  0
  9 10  1  0
 10 11  1  0
 11 12  1  0
 12 13  2  0
 13 14  1  0
 14 15  2  0
 15 16  1  0
 16 17  2  0
 17 18  1  0
 18 19  2  0
 19 20  1  0
 20 21  2  0
 21 22  1  0
 22 23  2  0
 23 24  1  0
 24 25  2  0
 25 26  1  0
 11 27  2  0
 27 28  1  0
  5 29  2  0
 29  1  1  0
 28  6  1  0
 28  9  1  0
 17 12  1  0
 26 18  1  0
 25 20  1  0
  1 30  1  0
  2 31  1  0
  4 32  1  0
 13 33  1  0
 14 34  1  0
 15 35  1  0
 16 36  1  0
 21 37  1  0
 22 38  1  0
 23 39  1  0
 24 40  1  0
 29 41  1  0
M  END
>  <Energy>  (1329) 
127.98398049896932

>  <compound_id>  (1329) 
6723

>  <target_id>  (1329) 
1

>  <reference_id>  (1329) 
82

>  <inspiration_ids>  (1329) 
[68, 82]

>  <energy_score>  (1329) 
-107.82522407593592

>  <distance_score>  (1329) 
4.003858188739602

>  <path>  (1329) 
/opt/xchem-fragalysis-2/maxwin/BulkDock/SCRATCH/511018/C6723-P82/C6723-P82.minimised.mol

>  <scratch_subdir>  (1329) 
/opt/xchem-fragalysis-2/maxwin/BulkDock/SCRATCH/511018/C6723-P82

>  <fragmenstein_runtime>  (1329) 
4.546683073043823

>  <fragmenstein_outcome>  (1329) 
too moved

>  <fragmenstein_mode>  (1329) 
expansion

>  <fragmenstein_error>  (1329) 


$$$$
C6724-P68
     RDKit          3D

 37 41  0  0  0  0  0  0  0  0999 V2000
  -14.3793  -24.4985   25.2790 C   0  0  0  0  0  0  0  0  0  0  0  0
  -13.8531  -23.2163   25.0971 C   0  0  0  0  0  0  0  0  0  0  0  0
  -12.6665  -22.8217   25.5848 N   0  0  0  0  0  0  0  0  0  0  0  0
  -11.9916  -23.7457   26.2763 C   0  0  0  0  0  0  0  0  0  0  0  0
  -12.3645  -25.0874   26.2381 C   0  0  0  0  0  0  0  0  0  0  0  0
  -11.3113  -26.0265   26.2010 C   0  0  0  0  0  0  0  0  0  0  0  0
  -10.2678  -25.9343   25.4425 N   0  0  0  0  0  0  0  0  0  0  0  0
   -9.8545  -27.2070   25.1649 N   0  0  0  0  0  0  0  0  0  0  0  0
  -10.2349  -27.8224   26.2027 C   0  0  0  0  0  0  0  0  0  0  0  0
   -9.6842  -29.0199   27.3147 S   0  0  0  0  0  0  0  0  0  0  0  0
  -11.3361  -29.1164   27.3490 C   0  0  0  0  0  0  0  0  0  0  0  0
  -12.6164  -30.5567   26.5686 C   0  0  0  0  0  0  0  0  0  0  0  0
  -12.5192  -32.0399   25.7924 C   0  0  0  0  0  0  0  0  0  0  0  0
  -13.5570  -33.1592   25.8261 C   0  0  0  0  0  0  0  0  0  0  0  0
  -13.2026  -34.3845   26.1624 N   0  0  0  0  0  0  0  0  0  0  0  0
  -13.2799  -35.1966   25.0457 C   0  0  0  0  0  0  0  0  0  0  0  0
  -12.6176  -36.4251   24.8575 C   0  0  0  0  0  0  0  0  0  0  0  0
  -12.7365  -37.0868   23.6330 C   0  0  0  0  0  0  0  0  0  0  0  0
  -13.5295  -36.5571   22.6186 C   0  0  0  0  0  0  0  0  0  0  0  0
  -14.2319  -35.3609   22.8005 C   0  0  0  0  0  0  0  0  0  0  0  0
  -14.0815  -34.6916   24.0230 C   0  0  0  0  0  0  0  0  0  0  0  0
  -14.7825  -33.2038   24.5803 S   0  0  0  0  0  0  0  0  0  0  0  0
  -11.5395  -27.8699   27.8521 N   0  0  0  0  0  0  0  0  0  0  0  0
  -11.2018  -27.2113   26.7741 N   0  0  0  0  0  0  0  0  0  0  0  0
  -13.5901  -25.4989   25.7730 C   0  0  0  0  0  0  0  0  0  0  0  0
  -15.4230  -24.7057   25.0409 H   0  0  0  0  0  0  0  0  0  0  0  0
  -14.4284  -22.4538   24.5797 H   0  0  0  0  0  0  0  0  0  0  0  0
  -11.0607  -23.4446   26.7333 H   0  0  0  0  0  0  0  0  0  0  0  0
  -13.2807  -30.9727   27.3393 H   0  0  0  0  0  0  0  0  0  0  0  0
  -13.4504  -30.0933   26.0851 H   0  0  0  0  0  0  0  0  0  0  0  0
  -11.5470  -32.5097   25.8606 H   0  0  0  0  0  0  0  0  0  0  0  0
  -12.5553  -31.9514   24.7108 H   0  0  0  0  0  0  0  0  0  0  0  0
  -11.9924  -36.8325   25.6448 H   0  0  0  0  0  0  0  0  0  0  0  0
  -12.2073  -38.0240   23.4743 H   0  0  0  0  0  0  0  0  0  0  0  0
  -13.6164  -37.0885   21.6724 H   0  0  0  0  0  0  0  0  0  0  0  0
  -14.8604  -34.9584   22.0123 H   0  0  0  0  0  0  0  0  0  0  0  0
  -13.8938  -26.5380   25.7437 H   0  0  0  0  0  0  0  0  0  0  0  0
  1  2  2  0
  2  3  1  0
  3  4  2  0
  4  5  1  0
  5  6  1  0
  6  7  2  0
  7  8  1  0
  8  9  2  0
  9 10  1  0
 10 11  1  0
 11 12  1  0
 12 13  1  0
 13 14  1  0
 14 15  2  0
 15 16  1  0
 16 17  2  0
 17 18  1  0
 18 19  2  0
 19 20  1  0
 20 21  2  0
 21 22  1  0
 11 23  2  0
 23 24  1  0
  5 25  2  0
 25  1  1  0
 24  6  1  0
 24  9  1  0
 22 14  1  0
 21 16  1  0
  1 26  1  0
  2 27  1  0
  4 28  1  0
 12 29  1  0
 12 30  1  0
 13 31  1  0
 13 32  1  0
 17 33  1  0
 18 34  1  0
 19 35  1  0
 20 36  1  0
 25 37  1  0
M  END
>  <Energy>  (1330) 
360.51418923704506

>  <compound_id>  (1330) 
6724

>  <target_id>  (1330) 
1

>  <reference_id>  (1330) 
68

>  <inspiration_ids>  (1330) 
[68, 82]

>  <energy_score>  (1330) 
198.21142361758416

>  <distance_score>  (1330) 
5.837798836201532

>  <path>  (1330) 
/opt/xchem-fragalysis-2/maxwin/BulkDock/SCRATCH/511018/C6724-P68/C6724-P68.minimised.mol

>  <scratch_subdir>  (1330) 
/opt/xchem-fragalysis-2/maxwin/BulkDock/SCRATCH/511018/C6724-P68

>  <fragmenstein_runtime>  (1330) 
9.259084224700928

>  <fragmenstein_outcome>  (1330) 
too moved

>  <fragmenstein_mode>  (1330) 
expansion

>  <fragmenstein_error>  (1330) 


$$$$
C6724-P82
     RDKit          3D

 37 41  0  0  0  0  0  0  0  0999 V2000
  -13.0571  -25.3675   26.5239 C   0  0  0  0  0  0  0  0  0  0  0  0
  -12.9891  -26.7219   26.7704 C   0  0  0  0  0  0  0  0  0  0  0  0
  -13.6233  -27.6455   26.0121 N   0  0  0  0  0  0  0  0  0  0  0  0
  -14.2985  -27.1978   24.9087 C   0  0  0  0  0  0  0  0  0  0  0  0
  -14.4371  -25.8646   24.5578 C   0  0  0  0  0  0  0  0  0  0  0  0
  -15.1622  -25.3541   23.3727 C   0  0  0  0  0  0  0  0  0  0  0  0
  -15.8105  -24.1848   23.3911 N   0  0  0  0  0  0  0  0  0  0  0  0
  -16.2281  -23.8504   22.1176 N   0  0  0  0  0  0  0  0  0  0  0  0
  -15.8290  -24.8222   21.3585 C   0  0  0  0  0  0  0  0  0  0  0  0
  -15.9260  -25.1774   19.6855 S   0  0  0  0  0  0  0  0  0  0  0  0
  -15.1892  -26.7641   20.0641 C   0  0  0  0  0  0  0  0  0  0  0  0
  -15.2248  -27.8237   18.8873 C   0  0  0  0  0  0  0  0  0  0  0  0
  -13.9633  -28.4679   18.2179 C   0  0  0  0  0  0  0  0  0  0  0  0
  -13.7338  -30.0009   18.3891 C   0  0  0  0  0  0  0  0  0  0  0  0
  -12.6110  -30.5517   18.8246 N   0  0  0  0  0  0  0  0  0  0  0  0
  -12.8220  -31.8857   19.2136 C   0  0  0  0  0  0  0  0  0  0  0  0
  -11.9674  -32.7074   19.9913 C   0  0  0  0  0  0  0  0  0  0  0  0
  -12.3268  -34.0217   20.3013 C   0  0  0  0  0  0  0  0  0  0  0  0
  -13.5276  -34.5365   19.8356 C   0  0  0  0  0  0  0  0  0  0  0  0
  -14.3979  -33.7472   19.0725 C   0  0  0  0  0  0  0  0  0  0  0  0
  -14.0376  -32.4155   18.7933 C   0  0  0  0  0  0  0  0  0  0  0  0
  -14.9321  -31.1733   17.9800 S   0  0  0  0  0  0  0  0  0  0  0  0
  -14.8400  -26.9468   21.3254 N   0  0  0  0  0  0  0  0  0  0  0  0
  -15.2207  -25.8194   22.0489 N   0  0  0  0  0  0  0  0  0  0  0  0
  -13.8053  -24.9435   25.4219 C   0  0  0  0  0  0  0  0  0  0  0  0
  -12.5485  -24.6520   27.1622 H   0  0  0  0  0  0  0  0  0  0  0  0
  -12.4112  -27.1115   27.6032 H   0  0  0  0  0  0  0  0  0  0  0  0
  -14.7416  -27.9858   24.3068 H   0  0  0  0  0  0  0  0  0  0  0  0
  -15.7362  -27.3098   18.0597 H   0  0  0  0  0  0  0  0  0  0  0  0
  -15.9412  -28.5982   19.1807 H   0  0  0  0  0  0  0  0  0  0  0  0
  -13.0598  -27.9299   18.5260 H   0  0  0  0  0  0  0  0  0  0  0  0
  -14.0414  -28.3085   17.1331 H   0  0  0  0  0  0  0  0  0  0  0  0
  -11.0311  -32.3092   20.3760 H   0  0  0  0  0  0  0  0  0  0  0  0
  -11.6564  -34.6348   20.8990 H   0  0  0  0  0  0  0  0  0  0  0  0
  -13.8000  -35.5637   20.0695 H   0  0  0  0  0  0  0  0  0  0  0  0
  -15.3458  -34.1499   18.7277 H   0  0  0  0  0  0  0  0  0  0  0  0
  -13.8659  -23.8742   25.2100 H   0  0  0  0  0  0  0  0  0  0  0  0
  1  2  2  0
  2  3  1  0
  3  4  2  0
  4  5  1  0
  5  6  1  0
  6  7  2  0
  7  8  1  0
  8  9  2  0
  9 10  1  0
 10 11  1  0
 11 12  1  0
 12 13  1  0
 13 14  1  0
 14 15  2  0
 15 16  1  0
 16 17  2  0
 17 18  1  0
 18 19  2  0
 19 20  1  0
 20 21  2  0
 21 22  1  0
 11 23  2  0
 23 24  1  0
  5 25  2  0
 25  1  1  0
 24  6  1  0
 24  9  1  0
 22 14  1  0
 21 16  1  0
  1 26  1  0
  2 27  1  0
  4 28  1  0
 12 29  1  0
 12 30  1  0
 13 31  1  0
 13 32  1  0
 17 33  1  0
 18 34  1  0
 19 35  1  0
 20 36  1  0
 25 37  1  0
M  END
>  <Energy>  (1331) 
92.936510545172538

>  <compound_id>  (1331) 
6724

>  <target_id>  (1331) 
1

>  <reference_id>  (1331) 
82

>  <inspiration_ids>  (1331) 
[68, 82]

>  <energy_score>  (1331) 
-69.36625507428062

>  <distance_score>  (1331) 
7.319047995816801

>  <path>  (1331) 
/opt/xchem-fragalysis-2/maxwin/BulkDock/SCRATCH/511018/C6724-P82/C6724-P82.minimised.mol

>  <scratch_subdir>  (1331) 
/opt/xchem-fragalysis-2/maxwin/BulkDock/SCRATCH/511018/C6724-P82

>  <fragmenstein_runtime>  (1331) 
6.912861585617065

>  <fragmenstein_outcome>  (1331) 
too moved

>  <fragmenstein_mode>  (1331) 
expansion

>  <fragmenstein_error>  (1331) 


$$$$
C6725-P68
     RDKit          3D

 52 56  0  0  0  0  0  0  0  0999 V2000
   -9.9392  -25.7219   27.1352 O   0  0  0  0  0  0  0  0  0  0  0  0
  -10.1214  -26.9184   27.2568 C   0  0  0  0  0  0  0  0  0  0  0  0
   -9.1719  -28.3125   28.1231 C   0  0  0  0  0  0  0  0  0  0  0  0
   -9.3522  -29.2769   27.0942 C   0  0  0  0  0  0  0  0  0  0  0  0
  -10.2739  -30.4630   27.2280 C   0  0  0  0  0  0  0  0  0  0  0  0
   -9.6896  -32.0568   28.2358 C   0  0  0  0  0  0  0  0  0  0  0  0
   -9.2865  -33.7325   27.3881 C   0  0  0  0  0  0  0  0  0  0  0  0
  -10.1362  -34.0209   26.0381 C   0  0  0  0  0  0  0  0  0  0  0  0
  -11.4055  -33.0965   25.7620 N   0  0  0  0  0  0  0  0  0  0  0  0
  -11.9842  -33.6198   24.6247 C   0  0  0  0  0  0  0  0  0  0  0  0
  -12.3597  -34.8833   24.6026 N   0  0  0  0  0  0  0  0  0  0  0  0
  -12.2187  -35.4166   23.3369 C   0  0  0  0  0  0  0  0  0  0  0  0
  -12.3370  -36.7775   23.0004 C   0  0  0  0  0  0  0  0  0  0  0  0
  -12.1145  -37.1803   21.6814 C   0  0  0  0  0  0  0  0  0  0  0  0
  -11.7956  -36.2458   20.7002 C   0  0  0  0  0  0  0  0  0  0  0  0
  -11.6898  -34.8878   21.0085 C   0  0  0  0  0  0  0  0  0  0  0  0
  -11.8968  -34.5008   22.3401 C   0  0  0  0  0  0  0  0  0  0  0  0
  -11.8052  -32.9413   23.0415 S   0  0  0  0  0  0  0  0  0  0  0  0
  -11.7267  -31.5477   26.3295 C   0  0  0  0  0  0  0  0  0  0  0  0
  -11.2129  -28.7954   27.5426 C   0  0  0  0  0  0  0  0  0  0  0  0
  -11.2332  -27.5269   26.7099 N   0  0  0  0  0  0  0  0  0  0  0  0
  -12.5286  -26.7814   26.3810 C   0  0  0  0  0  0  0  0  0  0  0  0
  -12.8959  -25.4028   25.9246 C   0  0  0  0  0  0  0  0  0  0  0  0
  -14.0840  -25.3197   25.1402 C   0  0  0  0  0  0  0  0  0  0  0  0
  -14.4807  -24.1245   24.5607 C   0  0  0  0  0  0  0  0  0  0  0  0
  -13.6808  -23.0276   24.7776 C   0  0  0  0  0  0  0  0  0  0  0  0
  -12.6099  -23.0286   25.6014 N   0  0  0  0  0  0  0  0  0  0  0  0
  -12.2694  -24.1923   26.2214 C   0  0  0  0  0  0  0  0  0  0  0  0
   -8.0697  -28.4339   28.2020 H   0  0  0  0  0  0  0  0  0  0  0  0
   -9.2987  -28.3035   29.2090 H   0  0  0  0  0  0  0  0  0  0  0  0
   -9.6959  -28.6995   26.2359 H   0  0  0  0  0  0  0  0  0  0  0  0
   -8.3540  -29.3333   26.7118 H   0  0  0  0  0  0  0  0  0  0  0  0
   -9.9531  -32.3852   29.2386 H   0  0  0  0  0  0  0  0  0  0  0  0
   -8.8486  -31.5355   28.4776 H   0  0  0  0  0  0  0  0  0  0  0  0
   -9.0841  -34.5655   28.0418 H   0  0  0  0  0  0  0  0  0  0  0  0
   -8.2705  -33.6713   26.9645 H   0  0  0  0  0  0  0  0  0  0  0  0
  -10.3755  -35.0905   25.9834 H   0  0  0  0  0  0  0  0  0  0  0  0
   -9.4616  -33.9036   25.1696 H   0  0  0  0  0  0  0  0  0  0  0  0
  -12.5823  -37.5033   23.7688 H   0  0  0  0  0  0  0  0  0  0  0  0
  -12.1954  -38.2332   21.4204 H   0  0  0  0  0  0  0  0  0  0  0  0
  -11.6307  -36.5751   19.6759 H   0  0  0  0  0  0  0  0  0  0  0  0
  -11.4435  -34.1587   20.2419 H   0  0  0  0  0  0  0  0  0  0  0  0
  -12.5927  -31.7515   26.9887 H   0  0  0  0  0  0  0  0  0  0  0  0
  -12.4893  -31.0050   25.7554 H   0  0  0  0  0  0  0  0  0  0  0  0
  -10.9275  -28.1835   28.3944 H   0  0  0  0  0  0  0  0  0  0  0  0
  -11.7457  -28.7926   28.4525 H   0  0  0  0  0  0  0  0  0  0  0  0
  -13.1741  -26.7846   27.2525 H   0  0  0  0  0  0  0  0  0  0  0  0
  -12.9708  -27.4411   25.6427 H   0  0  0  0  0  0  0  0  0  0  0  0
  -14.6785  -26.2065   24.9283 H   0  0  0  0  0  0  0  0  0  0  0  0
  -15.3479  -24.0576   23.9157 H   0  0  0  0  0  0  0  0  0  0  0  0
  -13.8747  -22.0912   24.2644 H   0  0  0  0  0  0  0  0  0  0  0  0
  -11.4005  -24.0748   26.8545 H   0  0  0  0  0  0  0  0  0  0  0  0
  1  2  2  0
  2  3  1  0
  3  4  1  0
  4  5  1  0
  5  6  1  0
  6  7  1  0
  7  8  1  0
  8  9  1  0
  9 10  1  0
 10 11  2  0
 11 12  1  0
 12 13  2  0
 13 14  1  0
 14 15  2  0
 15 16  1  0
 16 17  2  0
 17 18  1  0
  9 19  1  0
  5 20  1  0
 20 21  1  0
 21 22  1  0
 22 23  1  0
 23 24  2  0
 24 25  1  0
 25 26  2  0
 26 27  1  0
 27 28  2  0
 21  2  1  0
 28 23  1  0
 19  5  1  0
 18 10  1  0
 17 12  1  0
  3 29  1  0
  3 30  1  0
  4 31  1  0
  4 32  1  0
  6 33  1  0
  6 34  1  0
  7 35  1  0
  7 36  1  0
  8 37  1  0
  8 38  1  0
 13 39  1  0
 14 40  1  0
 15 41  1  0
 16 42  1  0
 19 43  1  0
 19 44  1  0
 20 45  1  0
 20 46  1  0
 22 47  1  0
 22 48  1  0
 24 49  1  0
 25 50  1  0
 26 51  1  0
 28 52  1  0
M  END
>  <Energy>  (1332) 
593.89723535862834

>  <compound_id>  (1332) 
6725

>  <target_id>  (1332) 
1

>  <reference_id>  (1332) 
68

>  <inspiration_ids>  (1332) 
[68, 82]

>  <energy_score>  (1332) 
492.85880066491677

>  <distance_score>  (1332) 
5.521000549926607

>  <path>  (1332) 
/opt/xchem-fragalysis-2/maxwin/BulkDock/SCRATCH/511018/C6725-P68/C6725-P68.minimised.mol

>  <scratch_subdir>  (1332) 
/opt/xchem-fragalysis-2/maxwin/BulkDock/SCRATCH/511018/C6725-P68

>  <fragmenstein_runtime>  (1332) 
21.215592622756958

>  <fragmenstein_outcome>  (1332) 
too moved

>  <fragmenstein_mode>  (1332) 
expansion

>  <fragmenstein_error>  (1332) 


$$$$
C6725-P82
     RDKit          3D

 52 56  0  0  0  0  0  0  0  0999 V2000
  -11.3998  -25.1942   25.7819 O   0  0  0  0  0  0  0  0  0  0  0  0
  -11.8791  -26.2288   26.2377 C   0  0  0  0  0  0  0  0  0  0  0  0
  -12.9159  -27.0021   25.4812 C   0  0  0  0  0  0  0  0  0  0  0  0
  -12.4941  -28.4448   25.4329 C   0  0  0  0  0  0  0  0  0  0  0  0
  -12.5564  -29.1972   26.7693 C   0  0  0  0  0  0  0  0  0  0  0  0
  -14.0083  -29.7359   27.0220 C   0  0  0  0  0  0  0  0  0  0  0  0
  -14.4474  -30.8900   26.1197 C   0  0  0  0  0  0  0  0  0  0  0  0
  -13.5339  -32.1100   26.1805 C   0  0  0  0  0  0  0  0  0  0  0  0
  -12.1349  -31.7591   25.8691 N   0  0  0  0  0  0  0  0  0  0  0  0
  -11.3652  -32.9087   25.3232 C   0  0  0  0  0  0  0  0  0  0  0  0
  -11.7677  -34.1734   25.4177 N   0  0  0  0  0  0  0  0  0  0  0  0
  -10.9770  -35.0849   24.7170 C   0  0  0  0  0  0  0  0  0  0  0  0
  -11.1555  -36.4761   24.6857 C   0  0  0  0  0  0  0  0  0  0  0  0
  -10.3502  -37.2457   23.8464 C   0  0  0  0  0  0  0  0  0  0  0  0
   -9.3743  -36.6519   23.0515 C   0  0  0  0  0  0  0  0  0  0  0  0
   -9.1485  -35.2814   23.1017 C   0  0  0  0  0  0  0  0  0  0  0  0
   -9.9617  -34.5337   23.9592 C   0  0  0  0  0  0  0  0  0  0  0  0
   -9.9025  -32.8809   24.3010 S   0  0  0  0  0  0  0  0  0  0  0  0
  -11.6291  -30.5798   26.8024 C   0  0  0  0  0  0  0  0  0  0  0  0
  -12.3468  -28.0049   27.8834 C   0  0  0  0  0  0  0  0  0  0  0  0
  -11.6743  -26.7021   27.5523 N   0  0  0  0  0  0  0  0  0  0  0  0
  -11.7342  -25.4903   28.4395 C   0  0  0  0  0  0  0  0  0  0  0  0
  -11.4816  -25.4449   29.9154 C   0  0  0  0  0  0  0  0  0  0  0  0
  -12.1191  -24.4464   30.6855 C   0  0  0  0  0  0  0  0  0  0  0  0
  -11.8785  -24.2973   32.0466 C   0  0  0  0  0  0  0  0  0  0  0  0
  -10.9542  -25.1381   32.6063 C   0  0  0  0  0  0  0  0  0  0  0  0
  -10.2610  -26.0434   31.8927 N   0  0  0  0  0  0  0  0  0  0  0  0
  -10.5255  -26.1790   30.5722 C   0  0  0  0  0  0  0  0  0  0  0  0
  -13.9013  -26.8542   25.9352 H   0  0  0  0  0  0  0  0  0  0  0  0
  -12.9786  -26.6210   24.4656 H   0  0  0  0  0  0  0  0  0  0  0  0
  -13.1706  -28.8845   24.7171 H   0  0  0  0  0  0  0  0  0  0  0  0
  -11.4662  -28.4343   25.0648 H   0  0  0  0  0  0  0  0  0  0  0  0
  -14.7412  -28.9270   26.9075 H   0  0  0  0  0  0  0  0  0  0  0  0
  -14.0801  -30.0696   28.0663 H   0  0  0  0  0  0  0  0  0  0  0  0
  -15.4559  -31.1996   26.4222 H   0  0  0  0  0  0  0  0  0  0  0  0
  -14.5466  -30.5452   25.0874 H   0  0  0  0  0  0  0  0  0  0  0  0
  -13.6043  -32.5572   27.1770 H   0  0  0  0  0  0  0  0  0  0  0  0
  -13.9213  -32.8439   25.4629 H   0  0  0  0  0  0  0  0  0  0  0  0
  -11.9372  -36.9327   25.2831 H   0  0  0  0  0  0  0  0  0  0  0  0
  -10.4988  -38.3221   23.8016 H   0  0  0  0  0  0  0  0  0  0  0  0
   -8.7621  -37.2682   22.3961 H   0  0  0  0  0  0  0  0  0  0  0  0
   -8.3653  -34.8098   22.5138 H   0  0  0  0  0  0  0  0  0  0  0  0
  -10.5782  -30.3648   26.5958 H   0  0  0  0  0  0  0  0  0  0  0  0
  -11.7104  -30.9220   27.8224 H   0  0  0  0  0  0  0  0  0  0  0  0
  -13.3619  -27.6594   28.0228 H   0  0  0  0  0  0  0  0  0  0  0  0
  -12.0015  -28.3671   28.8433 H   0  0  0  0  0  0  0  0  0  0  0  0
  -12.7377  -25.0798   28.2642 H   0  0  0  0  0  0  0  0  0  0  0  0
  -11.0294  -24.7565   28.0229 H   0  0  0  0  0  0  0  0  0  0  0  0
  -12.8357  -23.7749   30.2242 H   0  0  0  0  0  0  0  0  0  0  0  0
  -12.4171  -23.5692   32.6392 H   0  0  0  0  0  0  0  0  0  0  0  0
  -10.7479  -25.1260   33.6677 H   0  0  0  0  0  0  0  0  0  0  0  0
   -9.9146  -26.9146   30.0637 H   0  0  0  0  0  0  0  0  0  0  0  0
  1  2  2  0
  2  3  1  0
  3  4  1  0
  4  5  1  0
  5  6  1  0
  6  7  1  0
  7  8  1  0
  8  9  1  0
  9 10  1  0
 10 11  2  0
 11 12  1  0
 12 13  2  0
 13 14  1  0
 14 15  2  0
 15 16  1  0
 16 17  2  0
 17 18  1  0
  9 19  1  0
  5 20  1  0
 20 21  1  0
 21 22  1  0
 22 23  1  0
 23 24  2  0
 24 25  1  0
 25 26  2  0
 26 27  1  0
 27 28  2  0
 21  2  1  0
 28 23  1  0
 19  5  1  0
 18 10  1  0
 17 12  1  0
  3 29  1  0
  3 30  1  0
  4 31  1  0
  4 32  1  0
  6 33  1  0
  6 34  1  0
  7 35  1  0
  7 36  1  0
  8 37  1  0
  8 38  1  0
 13 39  1  0
 14 40  1  0
 15 41  1  0
 16 42  1  0
 19 43  1  0
 19 44  1  0
 20 45  1  0
 20 46  1  0
 22 47  1  0
 22 48  1  0
 24 49  1  0
 25 50  1  0
 26 51  1  0
 28 52  1  0
M  END
>  <Energy>  (1333) 
76.723176254063006

>  <compound_id>  (1333) 
6725

>  <target_id>  (1333) 
1

>  <reference_id>  (1333) 
82

>  <inspiration_ids>  (1333) 
[68, 82]

>  <energy_score>  (1333) 
6.660281970137021

>  <distance_score>  (1333) 
2.979281110311471

>  <path>  (1333) 
/opt/xchem-fragalysis-2/maxwin/BulkDock/SCRATCH/511018/C6725-P82/C6725-P82.minimised.mol

>  <scratch_subdir>  (1333) 
/opt/xchem-fragalysis-2/maxwin/BulkDock/SCRATCH/511018/C6725-P82

>  <fragmenstein_runtime>  (1333) 
8.201928615570068

>  <fragmenstein_outcome>  (1333) 
too moved

>  <fragmenstein_mode>  (1333) 
expansion

>  <fragmenstein_error>  (1333) 


$$$$
C6726-P68
     RDKit          3D

 42 46  0  0  0  0  0  0  0  0999 V2000
  -11.0895  -27.8379   25.8455 O   0  0  0  0  0  0  0  0  0  0  0  0
   -9.9624  -27.9655   26.2875 C   0  0  0  0  0  0  0  0  0  0  0  0
   -8.4602  -28.4689   25.1350 N   0  0  0  0  0  0  0  0  0  0  0  0
   -8.3661  -28.9500   23.3692 C   0  0  0  0  0  0  0  0  0  0  0  0
   -9.0242  -30.1408   23.0919 N   0  0  0  0  0  0  0  0  0  0  0  0
   -9.9111  -30.1314   21.5659 C   0  0  0  0  0  0  0  0  0  0  0  0
  -10.8451  -31.1286   21.1759 C   0  0  0  0  0  0  0  0  0  0  0  0
  -11.4573  -30.9812   19.9343 C   0  0  0  0  0  0  0  0  0  0  0  0
  -11.0604  -29.9444   19.0776 C   0  0  0  0  0  0  0  0  0  0  0  0
  -10.0740  -29.0047   19.4427 C   0  0  0  0  0  0  0  0  0  0  0  0
   -9.5312  -29.0816   20.7360 C   0  0  0  0  0  0  0  0  0  0  0  0
   -8.5261  -27.8841   21.5966 S   0  0  0  0  0  0  0  0  0  0  0  0
   -9.9202  -27.3941   28.2946 C   0  0  0  0  0  0  0  0  0  0  0  0
   -9.3944  -27.3249   30.1937 C   0  0  0  0  0  0  0  0  0  0  0  0
   -9.2756  -26.1187   31.7722 C   0  0  0  0  0  0  0  0  0  0  0  0
   -9.9956  -25.6508   33.6996 C   0  0  0  0  0  0  0  0  0  0  0  0
   -8.3297  -25.2706   35.1077 C   0  0  0  0  0  0  0  0  0  0  0  0
   -8.2542  -25.6475   36.9907 C   0  0  0  0  0  0  0  0  0  0  0  0
   -9.8555  -25.7789   37.4522 C   0  0  0  0  0  0  0  0  0  0  0  0
  -11.2139  -25.8603   36.7923 N   0  0  0  0  0  0  0  0  0  0  0  0
  -11.3553  -25.9269   35.4399 C   0  0  0  0  0  0  0  0  0  0  0  0
   -8.7272  -24.9137   30.8629 N   0  0  0  0  0  0  0  0  0  0  0  0
   -9.2174  -24.7734   29.0885 C   0  0  0  0  0  0  0  0  0  0  0  0
   -9.0126  -23.6916   28.2701 C   0  0  0  0  0  0  0  0  0  0  0  0
   -8.9386  -23.8791   26.9530 C   0  0  0  0  0  0  0  0  0  0  0  0
   -9.9001  -24.4523   26.2195 C   0  0  0  0  0  0  0  0  0  0  0  0
  -10.4242  -25.5003   26.7686 C   0  0  0  0  0  0  0  0  0  0  0  0
   -9.9031  -25.8942   28.0148 C   0  0  0  0  0  0  0  0  0  0  0  0
   -7.6130  -28.6135   25.7133 H   0  0  0  0  0  0  0  0  0  0  0  0
  -11.0923  -31.9409   21.8481 H   0  0  0  0  0  0  0  0  0  0  0  0
  -12.2003  -31.7016   19.6013 H   0  0  0  0  0  0  0  0  0  0  0  0
  -11.5161  -29.8727   18.0909 H   0  0  0  0  0  0  0  0  0  0  0  0
   -9.8113  -28.1901   18.7750 H   0  0  0  0  0  0  0  0  0  0  0  0
   -9.7653  -28.2594   30.5950 H   0  0  0  0  0  0  0  0  0  0  0  0
   -7.3192  -25.9992   35.3649 H   0  0  0  0  0  0  0  0  0  0  0  0
   -7.9807  -26.6616   37.3560 H   0  0  0  0  0  0  0  0  0  0  0  0
  -10.1274  -25.0826   38.2560 H   0  0  0  0  0  0  0  0  0  0  0  0
  -12.2016  -26.7901   35.3338 H   0  0  0  0  0  0  0  0  0  0  0  0
   -8.3016  -22.9134   28.5403 H   0  0  0  0  0  0  0  0  0  0  0  0
   -8.0716  -23.3613   26.5483 H   0  0  0  0  0  0  0  0  0  0  0  0
  -10.0686  -24.2321   25.1998 H   0  0  0  0  0  0  0  0  0  0  0  0
  -11.2445  -25.9522   26.2368 H   0  0  0  0  0  0  0  0  0  0  0  0
  1  2  2  0
  2  3  1  0
  3  4  1  0
  4  5  2  0
  5  6  1  0
  6  7  2  0
  7  8  1  0
  8  9  2  0
  9 10  1  0
 10 11  2  0
 11 12  1  0
  2 13  1  0
 13 14  2  0
 14 15  1  0
 15 16  1  0
 16 17  2  0
 17 18  1  0
 18 19  2  0
 19 20  1  0
 20 21  2  0
 15 22  2  0
 22 23  1  0
 23 24  2  0
 24 25  1  0
 25 26  2  0
 26 27  1  0
 27 28  2  0
 12  4  1  0
 28 13  1  0
 11  6  1  0
 21 16  1  0
 28 23  1  0
  3 29  1  0
  7 30  1  0
  8 31  1  0
  9 32  1  0
 10 33  1  0
 14 34  1  0
 17 35  1  0
 18 36  1  0
 19 37  1  0
 21 38  1  0
 24 39  1  0
 25 40  1  0
 26 41  1  0
 27 42  1  0
M  END
>  <Energy>  (1334) 
1933.3554473959227

>  <compound_id>  (1334) 
6726

>  <target_id>  (1334) 
1

>  <reference_id>  (1334) 
68

>  <inspiration_ids>  (1334) 
[68, 82]

>  <energy_score>  (1334) 
1814.4383646102142

>  <distance_score>  (1334) 
5.722498229803058

>  <path>  (1334) 
/opt/xchem-fragalysis-2/maxwin/BulkDock/SCRATCH/511018/C6726-P68/C6726-P68.minimised.mol

>  <scratch_subdir>  (1334) 
/opt/xchem-fragalysis-2/maxwin/BulkDock/SCRATCH/511018/C6726-P68

>  <fragmenstein_runtime>  (1334) 
17.502474069595337

>  <fragmenstein_outcome>  (1334) 
too moved

>  <fragmenstein_mode>  (1334) 
expansion

>  <fragmenstein_error>  (1334) 


$$$$
C6726-P82
     RDKit          3D

 42 46  0  0  0  0  0  0  0  0999 V2000
  -13.9501  -29.3131   27.8021 O   0  0  0  0  0  0  0  0  0  0  0  0
  -12.7989  -29.2059   27.5859 C   0  0  0  0  0  0  0  0  0  0  0  0
  -11.7828  -30.2234   26.9324 N   0  0  0  0  0  0  0  0  0  0  0  0
  -12.0022  -31.4941   26.3494 C   0  0  0  0  0  0  0  0  0  0  0  0
  -10.9464  -32.1076   25.8277 N   0  0  0  0  0  0  0  0  0  0  0  0
  -11.2320  -33.2258   25.0332 C   0  0  0  0  0  0  0  0  0  0  0  0
  -10.3177  -34.0389   24.3264 C   0  0  0  0  0  0  0  0  0  0  0  0
  -10.7743  -35.1024   23.5546 C   0  0  0  0  0  0  0  0  0  0  0  0
  -12.1344  -35.3425   23.4570 C   0  0  0  0  0  0  0  0  0  0  0  0
  -13.0582  -34.5357   24.1340 C   0  0  0  0  0  0  0  0  0  0  0  0
  -12.5856  -33.4770   24.9292 C   0  0  0  0  0  0  0  0  0  0  0  0
  -13.4438  -32.2664   25.8820 S   0  0  0  0  0  0  0  0  0  0  0  0
  -12.1407  -27.7810   27.9801 C   0  0  0  0  0  0  0  0  0  0  0  0
  -11.6804  -27.4427   29.2817 C   0  0  0  0  0  0  0  0  0  0  0  0
  -11.2087  -26.1534   29.5987 C   0  0  0  0  0  0  0  0  0  0  0  0
  -11.2313  -25.5270   30.9003 C   0  0  0  0  0  0  0  0  0  0  0  0
  -10.3363  -25.8391   31.8934 C   0  0  0  0  0  0  0  0  0  0  0  0
  -10.5128  -25.2827   33.1480 C   0  0  0  0  0  0  0  0  0  0  0  0
  -11.5353  -24.3662   33.3497 C   0  0  0  0  0  0  0  0  0  0  0  0
  -12.3358  -23.9241   32.3755 N   0  0  0  0  0  0  0  0  0  0  0  0
  -12.1731  -24.5256   31.1795 C   0  0  0  0  0  0  0  0  0  0  0  0
  -10.9922  -25.2476   28.6629 N   0  0  0  0  0  0  0  0  0  0  0  0
  -11.6619  -25.4253   27.5521 C   0  0  0  0  0  0  0  0  0  0  0  0
  -11.8200  -24.2781   26.8184 C   0  0  0  0  0  0  0  0  0  0  0  0
  -12.7183  -24.2515   25.7775 C   0  0  0  0  0  0  0  0  0  0  0  0
  -13.4364  -25.3955   25.4619 C   0  0  0  0  0  0  0  0  0  0  0  0
  -13.1950  -26.5985   26.1135 C   0  0  0  0  0  0  0  0  0  0  0  0
  -12.3125  -26.6417   27.1862 C   0  0  0  0  0  0  0  0  0  0  0  0
  -10.8832  -29.7791   26.8214 H   0  0  0  0  0  0  0  0  0  0  0  0
   -9.2634  -33.7999   24.3398 H   0  0  0  0  0  0  0  0  0  0  0  0
  -10.0648  -35.7171   23.0060 H   0  0  0  0  0  0  0  0  0  0  0  0
  -12.4929  -36.1654   22.8417 H   0  0  0  0  0  0  0  0  0  0  0  0
  -14.1235  -34.7297   24.0490 H   0  0  0  0  0  0  0  0  0  0  0  0
  -11.7879  -28.1590   30.0771 H   0  0  0  0  0  0  0  0  0  0  0  0
   -9.5230  -26.5214   31.6847 H   0  0  0  0  0  0  0  0  0  0  0  0
   -9.8576  -25.5780   33.9494 H   0  0  0  0  0  0  0  0  0  0  0  0
  -11.7417  -23.9422   34.3250 H   0  0  0  0  0  0  0  0  0  0  0  0
  -12.8732  -24.1924   30.4181 H   0  0  0  0  0  0  0  0  0  0  0  0
  -11.3231  -23.3615   27.1241 H   0  0  0  0  0  0  0  0  0  0  0  0
  -12.8964  -23.3272   25.2328 H   0  0  0  0  0  0  0  0  0  0  0  0
  -14.1816  -25.3564   24.6686 H   0  0  0  0  0  0  0  0  0  0  0  0
  -13.7589  -27.4739   25.7979 H   0  0  0  0  0  0  0  0  0  0  0  0
  1  2  2  0
  2  3  1  0
  3  4  1  0
  4  5  2  0
  5  6  1  0
  6  7  2  0
  7  8  1  0
  8  9  2  0
  9 10  1  0
 10 11  2  0
 11 12  1  0
  2 13  1  0
 13 14  2  0
 14 15  1  0
 15 16  1  0
 16 17  2  0
 17 18  1  0
 18 19  2  0
 19 20  1  0
 20 21  2  0
 15 22  2  0
 22 23  1  0
 23 24  2  0
 24 25  1  0
 25 26  2  0
 26 27  1  0
 27 28  2  0
 12  4  1  0
 28 13  1  0
 11  6  1  0
 21 16  1  0
 28 23  1  0
  3 29  1  0
  7 30  1  0
  8 31  1  0
  9 32  1  0
 10 33  1  0
 14 34  1  0
 17 35  1  0
 18 36  1  0
 19 37  1  0
 21 38  1  0
 24 39  1  0
 25 40  1  0
 26 41  1  0
 27 42  1  0
M  END
>  <Energy>  (1335) 
99.316943395530814

>  <compound_id>  (1335) 
6726

>  <target_id>  (1335) 
1

>  <reference_id>  (1335) 
82

>  <inspiration_ids>  (1335) 
[68, 82]

>  <energy_score>  (1335) 
-3.7544586413537218

>  <distance_score>  (1335) 
4.856437438364292

>  <path>  (1335) 
/opt/xchem-fragalysis-2/maxwin/BulkDock/SCRATCH/511018/C6726-P82/C6726-P82.minimised.mol

>  <scratch_subdir>  (1335) 
/opt/xchem-fragalysis-2/maxwin/BulkDock/SCRATCH/511018/C6726-P82

>  <fragmenstein_runtime>  (1335) 
5.164308071136475

>  <fragmenstein_outcome>  (1335) 
too moved

>  <fragmenstein_mode>  (1335) 
expansion

>  <fragmenstein_error>  (1335) 


$$$$
C6727-P68
     RDKit          3D

 42 44  0  0  0  0  0  0  0  0999 V2000
  -10.2354  -30.5575   21.8272 C   0  0  0  0  0  0  0  0  0  0  0  0
   -9.0528  -30.3147   23.4033 C   0  0  0  0  0  0  0  0  0  0  0  0
   -9.3727  -32.2024   23.8674 C   0  0  0  0  0  0  0  0  0  0  0  0
   -9.8002  -33.1440   22.7124 N   0  0  0  0  0  0  0  0  0  0  0  0
   -9.7693  -34.4682   23.0799 C   0  0  0  0  0  0  0  0  0  0  0  0
  -10.6622  -34.9863   23.8856 N   0  0  0  0  0  0  0  0  0  0  0  0
  -10.2899  -36.2712   24.2337 C   0  0  0  0  0  0  0  0  0  0  0  0
  -10.9582  -37.0960   25.1581 C   0  0  0  0  0  0  0  0  0  0  0  0
  -10.4366  -38.3543   25.4612 C   0  0  0  0  0  0  0  0  0  0  0  0
   -9.2779  -38.8044   24.8367 C   0  0  0  0  0  0  0  0  0  0  0  0
   -8.6163  -38.0200   23.8894 C   0  0  0  0  0  0  0  0  0  0  0  0
   -9.1401  -36.7520   23.6093 C   0  0  0  0  0  0  0  0  0  0  0  0
   -8.5599  -35.5597   22.5265 S   0  0  0  0  0  0  0  0  0  0  0  0
   -9.2669  -28.4886   24.4495 N   0  0  0  0  0  0  0  0  0  0  0  0
   -9.9821  -28.1227   26.0072 C   0  0  0  0  0  0  0  0  0  0  0  0
  -10.4198  -28.8715   26.8839 O   0  0  0  0  0  0  0  0  0  0  0  0
  -10.2842  -26.5780   26.3969 C   0  0  0  0  0  0  0  0  0  0  0  0
  -10.2027  -25.3113   25.8189 O   0  0  0  0  0  0  0  0  0  0  0  0
  -10.6264  -24.2970   26.6330 C   0  0  0  0  0  0  0  0  0  0  0  0
  -11.6672  -23.4406   26.3461 C   0  0  0  0  0  0  0  0  0  0  0  0
  -11.8301  -22.2709   27.0962 C   0  0  0  0  0  0  0  0  0  0  0  0
  -11.2207  -22.1168   28.2965 C   0  0  0  0  0  0  0  0  0  0  0  0
  -10.2305  -22.9252   28.5943 N   0  0  0  0  0  0  0  0  0  0  0  0
   -9.9417  -23.9493   27.7638 C   0  0  0  0  0  0  0  0  0  0  0  0
  -11.1616  -31.0930   22.1215 H   0  0  0  0  0  0  0  0  0  0  0  0
   -9.8708  -31.1916   21.0087 H   0  0  0  0  0  0  0  0  0  0  0  0
  -10.6175  -29.6622   21.4095 H   0  0  0  0  0  0  0  0  0  0  0  0
  -10.0297  -30.7629   23.4595 H   0  0  0  0  0  0  0  0  0  0  0  0
   -8.5760  -32.6389   24.4774 H   0  0  0  0  0  0  0  0  0  0  0  0
  -10.2351  -32.4096   24.4969 H   0  0  0  0  0  0  0  0  0  0  0  0
  -10.7822  -32.9392   22.5391 H   0  0  0  0  0  0  0  0  0  0  0  0
  -11.8639  -36.7408   25.6364 H   0  0  0  0  0  0  0  0  0  0  0  0
  -10.9325  -38.9870   26.1937 H   0  0  0  0  0  0  0  0  0  0  0  0
   -8.8753  -39.7821   25.0962 H   0  0  0  0  0  0  0  0  0  0  0  0
   -7.7106  -38.3739   23.4071 H   0  0  0  0  0  0  0  0  0  0  0  0
   -9.0957  -27.6655   23.9514 H   0  0  0  0  0  0  0  0  0  0  0  0
  -10.0853  -26.5474   27.4651 H   0  0  0  0  0  0  0  0  0  0  0  0
  -11.3809  -26.7131   26.3460 H   0  0  0  0  0  0  0  0  0  0  0  0
  -12.3775  -23.5145   25.5420 H   0  0  0  0  0  0  0  0  0  0  0  0
  -12.5146  -21.5341   26.7505 H   0  0  0  0  0  0  0  0  0  0  0  0
  -11.4727  -21.3493   29.0134 H   0  0  0  0  0  0  0  0  0  0  0  0
   -9.1389  -24.5254   28.1246 H   0  0  0  0  0  0  0  0  0  0  0  0
  1  2  1  0
  2  3  1  0
  3  4  1  0
  4  5  1  0
  5  6  2  0
  6  7  1  0
  7  8  2  0
  8  9  1  0
  9 10  2  0
 10 11  1  0
 11 12  2  0
 12 13  1  0
  2 14  1  0
 14 15  1  0
 15 16  2  0
 15 17  1  0
 17 18  1  0
 18 19  1  0
 19 20  2  0
 20 21  1  0
 21 22  2  0
 22 23  1  0
 23 24  2  0
 13  5  1  0
 24 19  1  0
 12  7  1  0
  1 25  1  0
  1 26  1  0
  1 27  1  0
  2 28  1  0
  3 29  1  0
  3 30  1  0
  4 31  1  0
  8 32  1  0
  9 33  1  0
 10 34  1  0
 11 35  1  0
 14 36  1  0
 17 37  1  0
 17 38  1  0
 20 39  1  0
 21 40  1  0
 22 41  1  0
 24 42  1  0
M  END
>  <Energy>  (1336) 
464.52767092677698

>  <compound_id>  (1336) 
6727

>  <target_id>  (1336) 
1

>  <reference_id>  (1336) 
68

>  <inspiration_ids>  (1336) 
[68, 82]

>  <energy_score>  (1336) 
333.5286817699641

>  <distance_score>  (1336) 
4.278417245940248

>  <path>  (1336) 
/opt/xchem-fragalysis-2/maxwin/BulkDock/SCRATCH/511018/C6727-P68/C6727-P68.minimised.mol

>  <scratch_subdir>  (1336) 
/opt/xchem-fragalysis-2/maxwin/BulkDock/SCRATCH/511018/C6727-P68

>  <fragmenstein_runtime>  (1336) 
12.961289405822754

>  <fragmenstein_outcome>  (1336) 
too moved

>  <fragmenstein_mode>  (1336) 
expansion

>  <fragmenstein_error>  (1336) 


$$$$
C6727-P82
     RDKit          3D

 42 44  0  0  0  0  0  0  0  0999 V2000
   -8.3532  -30.0790   23.7834 C   0  0  0  0  0  0  0  0  0  0  0  0
   -9.0411  -29.8974   25.1931 C   0  0  0  0  0  0  0  0  0  0  0  0
   -9.5459  -31.2710   25.7519 C   0  0  0  0  0  0  0  0  0  0  0  0
  -10.1746  -32.3543   24.8402 N   0  0  0  0  0  0  0  0  0  0  0  0
   -9.5884  -33.4874   24.3221 C   0  0  0  0  0  0  0  0  0  0  0  0
   -9.7606  -34.6457   24.9160 N   0  0  0  0  0  0  0  0  0  0  0  0
   -9.5150  -35.6755   24.0508 C   0  0  0  0  0  0  0  0  0  0  0  0
   -9.7384  -37.0246   24.3462 C   0  0  0  0  0  0  0  0  0  0  0  0
   -9.5932  -37.9521   23.3248 C   0  0  0  0  0  0  0  0  0  0  0  0
   -9.1902  -37.5528   22.0517 C   0  0  0  0  0  0  0  0  0  0  0  0
   -8.9042  -36.2221   21.7567 C   0  0  0  0  0  0  0  0  0  0  0  0
   -9.0934  -35.2969   22.7801 C   0  0  0  0  0  0  0  0  0  0  0  0
   -8.9262  -33.5962   22.7336 S   0  0  0  0  0  0  0  0  0  0  0  0
   -9.6866  -28.5857   25.6592 N   0  0  0  0  0  0  0  0  0  0  0  0
  -11.1680  -28.2837   26.1556 C   0  0  0  0  0  0  0  0  0  0  0  0
  -12.1146  -28.9840   26.1995 O   0  0  0  0  0  0  0  0  0  0  0  0
  -11.1506  -26.7316   26.7571 C   0  0  0  0  0  0  0  0  0  0  0  0
  -12.0475  -26.2875   27.7996 O   0  0  0  0  0  0  0  0  0  0  0  0
  -11.5379  -25.7155   28.9485 C   0  0  0  0  0  0  0  0  0  0  0  0
  -11.9772  -24.4536   29.3322 C   0  0  0  0  0  0  0  0  0  0  0  0
  -11.7569  -23.9715   30.6325 C   0  0  0  0  0  0  0  0  0  0  0  0
  -11.0345  -24.7514   31.5121 C   0  0  0  0  0  0  0  0  0  0  0  0
  -10.5194  -25.9404   31.1599 N   0  0  0  0  0  0  0  0  0  0  0  0
  -10.8089  -26.3945   29.9083 C   0  0  0  0  0  0  0  0  0  0  0  0
   -8.8980  -29.6598   22.9346 H   0  0  0  0  0  0  0  0  0  0  0  0
   -8.1910  -31.1254   23.5359 H   0  0  0  0  0  0  0  0  0  0  0  0
   -7.3346  -29.6844   23.7964 H   0  0  0  0  0  0  0  0  0  0  0  0
   -8.1681  -29.6996   25.8086 H   0  0  0  0  0  0  0  0  0  0  0  0
   -8.6851  -31.6876   26.1885 H   0  0  0  0  0  0  0  0  0  0  0  0
  -10.2645  -31.0769   26.5585 H   0  0  0  0  0  0  0  0  0  0  0  0
  -11.0003  -32.6703   25.3502 H   0  0  0  0  0  0  0  0  0  0  0  0
  -10.0733  -37.3213   25.3340 H   0  0  0  0  0  0  0  0  0  0  0  0
   -9.7951  -39.0030   23.5199 H   0  0  0  0  0  0  0  0  0  0  0  0
   -9.0769  -38.3033   21.2706 H   0  0  0  0  0  0  0  0  0  0  0  0
   -8.5779  -35.9189   20.7675 H   0  0  0  0  0  0  0  0  0  0  0  0
   -9.1017  -27.7852   25.8343 H   0  0  0  0  0  0  0  0  0  0  0  0
  -11.3706  -26.1049   25.8841 H   0  0  0  0  0  0  0  0  0  0  0  0
  -10.1300  -26.4973   27.0687 H   0  0  0  0  0  0  0  0  0  0  0  0
  -12.5417  -23.8503   28.6313 H   0  0  0  0  0  0  0  0  0  0  0  0
  -12.1630  -23.0143   30.9377 H   0  0  0  0  0  0  0  0  0  0  0  0
  -10.8436  -24.4344   32.5312 H   0  0  0  0  0  0  0  0  0  0  0  0
  -10.4664  -27.3972   29.7446 H   0  0  0  0  0  0  0  0  0  0  0  0
  1  2  1  0
  2  3  1  0
  3  4  1  0
  4  5  1  0
  5  6  2  0
  6  7  1  0
  7  8  2  0
  8  9  1  0
  9 10  2  0
 10 11  1  0
 11 12  2  0
 12 13  1  0
  2 14  1  0
 14 15  1  0
 15 16  2  0
 15 17  1  0
 17 18  1  0
 18 19  1  0
 19 20  2  0
 20 21  1  0
 21 22  2  0
 22 23  1  0
 23 24  2  0
 13  5  1  0
 24 19  1  0
 12  7  1  0
  1 25  1  0
  1 26  1  0
  1 27  1  0
  2 28  1  0
  3 29  1  0
  3 30  1  0
  4 31  1  0
  8 32  1  0
  9 33  1  0
 10 34  1  0
 11 35  1  0
 14 36  1  0
 17 37  1  0
 17 38  1  0
 20 39  1  0
 21 40  1  0
 22 41  1  0
 24 42  1  0
M  END
>  <Energy>  (1337) 
128.89292964626074

>  <compound_id>  (1337) 
6727

>  <target_id>  (1337) 
1

>  <reference_id>  (1337) 
82

>  <inspiration_ids>  (1337) 
[68, 82]

>  <energy_score>  (1337) 
22.759964398224668

>  <distance_score>  (1337) 
2.883904497505694

>  <path>  (1337) 
/opt/xchem-fragalysis-2/maxwin/BulkDock/SCRATCH/511018/C6727-P82/C6727-P82.minimised.mol

>  <scratch_subdir>  (1337) 
/opt/xchem-fragalysis-2/maxwin/BulkDock/SCRATCH/511018/C6727-P82

>  <fragmenstein_runtime>  (1337) 
4.151233911514282

>  <fragmenstein_outcome>  (1337) 
too moved

>  <fragmenstein_mode>  (1337) 
expansion

>  <fragmenstein_error>  (1337) 


$$$$
C6728-P68
     RDKit          3D

 33 35  0  0  0  0  0  0  0  0999 V2000
  -12.1907  -32.8132   33.1763 C   0  0  0  0  0  0  0  0  0  0  0  0
  -11.4684  -31.5665   32.7078 C   0  0  0  0  0  0  0  0  0  0  0  0
  -10.0496  -31.7133   31.9802 C   0  0  0  0  0  0  0  0  0  0  0  0
   -9.1251  -31.1332   32.4401 O   0  0  0  0  0  0  0  0  0  0  0  0
  -10.1661  -32.4813   30.7851 N   0  0  0  0  0  0  0  0  0  0  0  0
   -9.1316  -32.7439   29.5849 C   0  0  0  0  0  0  0  0  0  0  0  0
   -9.5734  -32.8484   28.3047 N   0  0  0  0  0  0  0  0  0  0  0  0
   -9.3764  -34.0375   27.2359 C   0  0  0  0  0  0  0  0  0  0  0  0
  -10.0208  -34.3198   25.8747 C   0  0  0  0  0  0  0  0  0  0  0  0
  -11.4447  -33.4516   25.3280 Cl  0  0  0  0  0  0  0  0  0  0  0  0
   -9.8571  -35.4574   25.0981 C   0  0  0  0  0  0  0  0  0  0  0  0
   -9.2657  -36.5025   25.7062 C   0  0  0  0  0  0  0  0  0  0  0  0
   -8.7778  -36.3255   27.0026 C   0  0  0  0  0  0  0  0  0  0  0  0
   -8.6991  -35.0758   27.7653 C   0  0  0  0  0  0  0  0  0  0  0  0
   -7.8219  -34.4364   29.5107 S   0  0  0  0  0  0  0  0  0  0  0  0
  -12.0300  -30.0813   32.9662 C   0  0  0  0  0  0  0  0  0  0  0  0
  -13.0058  -29.7193   32.0868 C   0  0  0  0  0  0  0  0  0  0  0  0
  -14.3241  -29.9984   32.3688 C   0  0  0  0  0  0  0  0  0  0  0  0
  -14.5937  -30.0014   33.6923 C   0  0  0  0  0  0  0  0  0  0  0  0
  -13.6828  -29.5124   34.5521 N   0  0  0  0  0  0  0  0  0  0  0  0
  -12.3926  -29.4772   34.1222 C   0  0  0  0  0  0  0  0  0  0  0  0
  -12.5419  -33.4484   32.3554 H   0  0  0  0  0  0  0  0  0  0  0  0
  -13.0775  -32.5890   33.7595 H   0  0  0  0  0  0  0  0  0  0  0  0
  -11.5116  -33.4577   33.6901 H   0  0  0  0  0  0  0  0  0  0  0  0
  -12.0243  -31.5859   31.7878 H   0  0  0  0  0  0  0  0  0  0  0  0
  -11.0782  -32.9013   30.7516 H   0  0  0  0  0  0  0  0  0  0  0  0
  -10.3245  -35.5734   24.1260 H   0  0  0  0  0  0  0  0  0  0  0  0
   -9.1786  -37.4683   25.2148 H   0  0  0  0  0  0  0  0  0  0  0  0
   -8.3245  -37.2385   27.3230 H   0  0  0  0  0  0  0  0  0  0  0  0
  -12.6570  -29.1904   31.2191 H   0  0  0  0  0  0  0  0  0  0  0  0
  -15.1286  -30.0210   31.6551 H   0  0  0  0  0  0  0  0  0  0  0  0
  -15.5819  -30.2148   34.0807 H   0  0  0  0  0  0  0  0  0  0  0  0
  -11.6874  -29.1172   34.8655 H   0  0  0  0  0  0  0  0  0  0  0  0
  1  2  1  0
  2  3  1  0
  3  4  2  0
  3  5  1  0
  5  6  1  0
  6  7  2  0
  7  8  1  0
  8  9  2  0
  9 10  1  0
  9 11  1  0
 11 12  2  0
 12 13  1  0
 13 14  2  0
 14 15  1  0
  2 16  1  0
 16 17  2  0
 17 18  1  0
 18 19  2  0
 19 20  1  0
 20 21  2  0
 15  6  1  0
 21 16  1  0
 14  8  1  0
  1 22  1  0
  1 23  1  0
  1 24  1  0
  2 25  1  0
  5 26  1  0
 11 27  1  0
 12 28  1  0
 13 29  1  0
 17 30  1  0
 18 31  1  0
 19 32  1  0
 21 33  1  0
M  END
>  <Energy>  (1338) 
294.95146042718449

>  <compound_id>  (1338) 
6728

>  <target_id>  (1338) 
1

>  <reference_id>  (1338) 
68

>  <inspiration_ids>  (1338) 
[68, 82]

>  <energy_score>  (1338) 
186.17142707695962

>  <distance_score>  (1338) 
5.6942689703071965

>  <path>  (1338) 
/opt/xchem-fragalysis-2/maxwin/BulkDock/SCRATCH/511018/C6728-P68/C6728-P68.minimised.mol

>  <scratch_subdir>  (1338) 
/opt/xchem-fragalysis-2/maxwin/BulkDock/SCRATCH/511018/C6728-P68

>  <fragmenstein_runtime>  (1338) 
10.355222463607788

>  <fragmenstein_outcome>  (1338) 
too moved

>  <fragmenstein_mode>  (1338) 
expansion

>  <fragmenstein_error>  (1338) 


$$$$
C6728-P82
     RDKit          3D

 33 35  0  0  0  0  0  0  0  0999 V2000
  -13.4183  -30.4896   28.9293 C   0  0  0  0  0  0  0  0  0  0  0  0
  -12.9980  -29.7306   27.6499 C   0  0  0  0  0  0  0  0  0  0  0  0
  -12.9646  -30.8631   26.4399 C   0  0  0  0  0  0  0  0  0  0  0  0
  -14.0327  -31.0227   25.9596 O   0  0  0  0  0  0  0  0  0  0  0  0
  -11.5986  -31.6216   26.1761 N   0  0  0  0  0  0  0  0  0  0  0  0
  -11.3101  -32.7703   25.3521 C   0  0  0  0  0  0  0  0  0  0  0  0
  -11.9995  -33.8853   25.2532 N   0  0  0  0  0  0  0  0  0  0  0  0
  -11.3124  -34.8756   24.5222 C   0  0  0  0  0  0  0  0  0  0  0  0
  -11.6721  -36.2188   24.3231 C   0  0  0  0  0  0  0  0  0  0  0  0
  -13.0865  -36.7603   25.1158 Cl  0  0  0  0  0  0  0  0  0  0  0  0
  -10.9269  -37.0569   23.5004 C   0  0  0  0  0  0  0  0  0  0  0  0
   -9.8024  -36.5669   22.8482 C   0  0  0  0  0  0  0  0  0  0  0  0
   -9.3815  -35.2557   23.0440 C   0  0  0  0  0  0  0  0  0  0  0  0
  -10.1428  -34.4503   23.9032 C   0  0  0  0  0  0  0  0  0  0  0  0
   -9.8257  -32.8662   24.4096 S   0  0  0  0  0  0  0  0  0  0  0  0
  -12.2576  -28.3532   27.8907 C   0  0  0  0  0  0  0  0  0  0  0  0
  -11.9304  -27.8234   29.1679 C   0  0  0  0  0  0  0  0  0  0  0  0
  -11.4043  -26.5452   29.4185 C   0  0  0  0  0  0  0  0  0  0  0  0
  -11.2148  -25.7441   28.3385 C   0  0  0  0  0  0  0  0  0  0  0  0
  -11.5092  -26.1647   27.0961 N   0  0  0  0  0  0  0  0  0  0  0  0
  -12.0245  -27.4206   26.9044 C   0  0  0  0  0  0  0  0  0  0  0  0
  -13.9617  -31.4102   28.6880 H   0  0  0  0  0  0  0  0  0  0  0  0
  -14.0928  -29.8854   29.5434 H   0  0  0  0  0  0  0  0  0  0  0  0
  -12.5811  -30.7730   29.5620 H   0  0  0  0  0  0  0  0  0  0  0  0
  -13.9651  -29.2644   27.3704 H   0  0  0  0  0  0  0  0  0  0  0  0
  -10.8529  -31.1731   26.7020 H   0  0  0  0  0  0  0  0  0  0  0  0
  -11.2345  -38.0883   23.3497 H   0  0  0  0  0  0  0  0  0  0  0  0
   -9.2302  -37.2194   22.1912 H   0  0  0  0  0  0  0  0  0  0  0  0
   -8.4826  -34.8732   22.5656 H   0  0  0  0  0  0  0  0  0  0  0  0
  -12.0883  -28.4429   30.0423 H   0  0  0  0  0  0  0  0  0  0  0  0
  -11.1701  -26.2068   30.4204 H   0  0  0  0  0  0  0  0  0  0  0  0
  -10.8270  -24.7351   28.4215 H   0  0  0  0  0  0  0  0  0  0  0  0
  -12.2520  -27.6370   25.8612 H   0  0  0  0  0  0  0  0  0  0  0  0
  1  2  1  0
  2  3  1  0
  3  4  2  0
  3  5  1  0
  5  6  1  0
  6  7  2  0
  7  8  1  0
  8  9  2  0
  9 10  1  0
  9 11  1  0
 11 12  2  0
 12 13  1  0
 13 14  2  0
 14 15  1  0
  2 16  1  0
 16 17  2  0
 17 18  1  0
 18 19  2  0
 19 20  1  0
 20 21  2  0
 15  6  1  0
 21 16  1  0
 14  8  1  0
  1 22  1  0
  1 23  1  0
  1 24  1  0
  2 25  1  0
  5 26  1  0
 11 27  1  0
 12 28  1  0
 13 29  1  0
 17 30  1  0
 18 31  1  0
 19 32  1  0
 21 33  1  0
M  END
>  <Energy>  (1339) 
104.72043370126424

>  <compound_id>  (1339) 
6728

>  <target_id>  (1339) 
1

>  <reference_id>  (1339) 
82

>  <inspiration_ids>  (1339) 
[68, 82]

>  <energy_score>  (1339) 
21.793535506662238

>  <distance_score>  (1339) 
4.490181907774389

>  <path>  (1339) 
/opt/xchem-fragalysis-2/maxwin/BulkDock/SCRATCH/511018/C6728-P82/C6728-P82.minimised.mol

>  <scratch_subdir>  (1339) 
/opt/xchem-fragalysis-2/maxwin/BulkDock/SCRATCH/511018/C6728-P82

>  <fragmenstein_runtime>  (1339) 
3.8407716751098633

>  <fragmenstein_outcome>  (1339) 
too moved

>  <fragmenstein_mode>  (1339) 
expansion

>  <fragmenstein_error>  (1339) 


$$$$
C6729-P68
     RDKit          3D

 27 29  0  0  0  0  0  0  0  0999 V2000
   -9.4879  -25.2763   25.8363 O   0  0  0  0  0  0  0  0  0  0  0  0
  -10.1931  -26.2407   25.5909 C   0  0  0  0  0  0  0  0  0  0  0  0
   -9.9370  -27.4856   24.6450 N   0  0  0  0  0  0  0  0  0  0  0  0
   -8.5565  -27.8803   23.4689 C   0  0  0  0  0  0  0  0  0  0  0  0
   -8.2996  -28.9894   22.7002 N   0  0  0  0  0  0  0  0  0  0  0  0
   -9.0975  -28.9667   21.2294 C   0  0  0  0  0  0  0  0  0  0  0  0
   -9.9859  -29.8723   20.5209 C   0  0  0  0  0  0  0  0  0  0  0  0
  -10.7114  -31.2690   21.2523 Cl  0  0  0  0  0  0  0  0  0  0  0  0
  -10.4794  -29.5574   19.2479 C   0  0  0  0  0  0  0  0  0  0  0  0
  -10.1209  -28.3730   18.6386 C   0  0  0  0  0  0  0  0  0  0  0  0
   -9.3307  -27.4545   19.3211 C   0  0  0  0  0  0  0  0  0  0  0  0
   -8.8937  -27.7629   20.6194 C   0  0  0  0  0  0  0  0  0  0  0  0
   -7.9604  -26.8282   21.6618 S   0  0  0  0  0  0  0  0  0  0  0  0
  -11.5273  -26.1005   26.2192 C   0  0  0  0  0  0  0  0  0  0  0  0
  -12.5586  -26.9609   25.9553 C   0  0  0  0  0  0  0  0  0  0  0  0
  -13.8666  -26.5612   25.6117 C   0  0  0  0  0  0  0  0  0  0  0  0
  -14.0752  -25.2346   25.4035 C   0  0  0  0  0  0  0  0  0  0  0  0
  -13.1961  -24.3374   25.8460 N   0  0  0  0  0  0  0  0  0  0  0  0
  -11.9773  -24.7672   26.3046 C   0  0  0  0  0  0  0  0  0  0  0  0
  -10.6503  -28.0981   24.7361 H   0  0  0  0  0  0  0  0  0  0  0  0
  -11.1585  -30.2351   18.7343 H   0  0  0  0  0  0  0  0  0  0  0  0
  -10.4884  -28.1370   17.6428 H   0  0  0  0  0  0  0  0  0  0  0  0
   -9.0809  -26.4978   18.8694 H   0  0  0  0  0  0  0  0  0  0  0  0
  -12.2898  -27.9758   25.7595 H   0  0  0  0  0  0  0  0  0  0  0  0
  -14.6313  -27.2732   25.3319 H   0  0  0  0  0  0  0  0  0  0  0  0
  -14.9869  -24.8385   24.9670 H   0  0  0  0  0  0  0  0  0  0  0  0
  -11.3017  -23.9517   26.5634 H   0  0  0  0  0  0  0  0  0  0  0  0
  1  2  2  0
  2  3  1  0
  3  4  1  0
  4  5  2  0
  5  6  1  0
  6  7  2  0
  7  8  1  0
  7  9  1  0
  9 10  2  0
 10 11  1  0
 11 12  2  0
 12 13  1  0
  2 14  1  0
 14 15  2  0
 15 16  1  0
 16 17  2  0
 17 18  1  0
 18 19  2  0
 13  4  1  0
 19 14  1  0
 12  6  1  0
  3 20  1  0
  9 21  1  0
 10 22  1  0
 11 23  1  0
 15 24  1  0
 16 25  1  0
 17 26  1  0
 19 27  1  0
M  END
>  <Energy>  (1340) 
277.099053334308

>  <compound_id>  (1340) 
6729

>  <target_id>  (1340) 
1

>  <reference_id>  (1340) 
68

>  <inspiration_ids>  (1340) 
[68, 82]

>  <energy_score>  (1340) 
209.63884708031878

>  <distance_score>  (1340) 
7.509506625869112

>  <path>  (1340) 
/opt/xchem-fragalysis-2/maxwin/BulkDock/SCRATCH/511018/C6729-P68/C6729-P68.minimised.mol

>  <scratch_subdir>  (1340) 
/opt/xchem-fragalysis-2/maxwin/BulkDock/SCRATCH/511018/C6729-P68

>  <fragmenstein_runtime>  (1340) 
6.056234359741211

>  <fragmenstein_outcome>  (1340) 
too moved

>  <fragmenstein_mode>  (1340) 
expansion

>  <fragmenstein_error>  (1340) 


$$$$
C6729-P82
     RDKit          3D

 27 29  0  0  0  0  0  0  0  0999 V2000
  -11.3681  -27.8455   26.0999 O   0  0  0  0  0  0  0  0  0  0  0  0
  -11.9481  -28.2313   27.0508 C   0  0  0  0  0  0  0  0  0  0  0  0
  -12.4948  -29.6822   27.4031 N   0  0  0  0  0  0  0  0  0  0  0  0
  -12.3487  -30.9047   26.7172 C   0  0  0  0  0  0  0  0  0  0  0  0
  -13.1484  -31.9330   26.4825 N   0  0  0  0  0  0  0  0  0  0  0  0
  -12.5547  -32.9339   25.6191 C   0  0  0  0  0  0  0  0  0  0  0  0
  -13.0950  -34.1219   25.0756 C   0  0  0  0  0  0  0  0  0  0  0  0
  -14.7294  -34.4378   25.4731 Cl  0  0  0  0  0  0  0  0  0  0  0  0
  -12.3649  -34.9804   24.2426 C   0  0  0  0  0  0  0  0  0  0  0  0
  -11.0552  -34.6721   23.9103 C   0  0  0  0  0  0  0  0  0  0  0  0
  -10.4559  -33.5395   24.4530 C   0  0  0  0  0  0  0  0  0  0  0  0
  -11.2154  -32.7171   25.3343 C   0  0  0  0  0  0  0  0  0  0  0  0
  -10.7289  -31.2941   26.2968 S   0  0  0  0  0  0  0  0  0  0  0  0
  -12.0501  -27.0889   28.1153 C   0  0  0  0  0  0  0  0  0  0  0  0
  -12.2167  -25.7440   27.7521 C   0  0  0  0  0  0  0  0  0  0  0  0
  -12.0061  -24.6814   28.6709 C   0  0  0  0  0  0  0  0  0  0  0  0
  -11.5810  -24.9554   29.9536 C   0  0  0  0  0  0  0  0  0  0  0  0
  -11.3395  -26.2062   30.3423 N   0  0  0  0  0  0  0  0  0  0  0  0
  -11.5976  -27.1972   29.4278 C   0  0  0  0  0  0  0  0  0  0  0  0
  -13.0177  -29.6467   28.2632 H   0  0  0  0  0  0  0  0  0  0  0  0
  -12.8320  -35.8750   23.8389 H   0  0  0  0  0  0  0  0  0  0  0  0
  -10.4886  -35.3176   23.2427 H   0  0  0  0  0  0  0  0  0  0  0  0
   -9.4242  -33.2899   24.2170 H   0  0  0  0  0  0  0  0  0  0  0  0
  -12.4699  -25.4963   26.7214 H   0  0  0  0  0  0  0  0  0  0  0  0
  -12.1612  -23.6530   28.3579 H   0  0  0  0  0  0  0  0  0  0  0  0
  -11.4200  -24.1745   30.6873 H   0  0  0  0  0  0  0  0  0  0  0  0
  -11.4556  -28.1415   29.8992 H   0  0  0  0  0  0  0  0  0  0  0  0
  1  2  2  0
  2  3  1  0
  3  4  1  0
  4  5  2  0
  5  6  1  0
  6  7  2  0
  7  8  1  0
  7  9  1  0
  9 10  2  0
 10 11  1  0
 11 12  2  0
 12 13  1  0
  2 14  1  0
 14 15  2  0
 15 16  1  0
 16 17  2  0
 17 18  1  0
 18 19  2  0
 13  4  1  0
 19 14  1  0
 12  6  1  0
  3 20  1  0
  9 21  1  0
 10 22  1  0
 11 23  1  0
 15 24  1  0
 16 25  1  0
 17 26  1  0
 19 27  1  0
M  END
>  <Energy>  (1341) 
81.661009823902205

>  <compound_id>  (1341) 
6729

>  <target_id>  (1341) 
1

>  <reference_id>  (1341) 
82

>  <inspiration_ids>  (1341) 
[68, 82]

>  <energy_score>  (1341) 
6.921920879045956

>  <distance_score>  (1341) 
4.836392127139728

>  <path>  (1341) 
/opt/xchem-fragalysis-2/maxwin/BulkDock/SCRATCH/511018/C6729-P82/C6729-P82.minimised.mol

>  <scratch_subdir>  (1341) 
/opt/xchem-fragalysis-2/maxwin/BulkDock/SCRATCH/511018/C6729-P82

>  <fragmenstein_runtime>  (1341) 
3.116551399230957

>  <fragmenstein_outcome>  (1341) 
too moved

>  <fragmenstein_mode>  (1341) 
expansion

>  <fragmenstein_error>  (1341) 


$$$$
C6730-P68
     RDKit          3D

 33 35  0  0  0  0  0  0  0  0999 V2000
   -9.4468  -27.6448   29.7552 C   0  0  0  0  0  0  0  0  0  0  0  0
   -8.8668  -28.6148   28.8638 C   0  0  0  0  0  0  0  0  0  0  0  0
   -7.6866  -28.8662   28.8490 O   0  0  0  0  0  0  0  0  0  0  0  0
  -10.0714  -29.2592   28.1101 N   0  0  0  0  0  0  0  0  0  0  0  0
  -10.3148  -28.5087   26.7663 C   0  0  0  0  0  0  0  0  0  0  0  0
  -10.8139  -27.0448   26.1268 C   0  0  0  0  0  0  0  0  0  0  0  0
  -12.0953  -26.4659   26.1603 C   0  0  0  0  0  0  0  0  0  0  0  0
  -12.4512  -25.2995   25.4629 C   0  0  0  0  0  0  0  0  0  0  0  0
  -11.5431  -24.7566   24.6012 C   0  0  0  0  0  0  0  0  0  0  0  0
  -10.3872  -25.3606   24.3377 N   0  0  0  0  0  0  0  0  0  0  0  0
  -10.1150  -26.4909   25.0454 C   0  0  0  0  0  0  0  0  0  0  0  0
  -10.1350  -30.5691   27.1743 C   0  0  0  0  0  0  0  0  0  0  0  0
  -11.3067  -31.5448   26.4636 N   0  0  0  0  0  0  0  0  0  0  0  0
  -10.9945  -33.1473   25.7616 C   0  0  0  0  0  0  0  0  0  0  0  0
  -11.5319  -33.8887   24.7007 C   0  0  0  0  0  0  0  0  0  0  0  0
  -12.8229  -33.2257   23.8195 Cl  0  0  0  0  0  0  0  0  0  0  0  0
  -11.0142  -35.1565   24.3914 C   0  0  0  0  0  0  0  0  0  0  0  0
  -10.0059  -35.7553   25.1664 C   0  0  0  0  0  0  0  0  0  0  0  0
   -9.4812  -35.1466   26.3159 C   0  0  0  0  0  0  0  0  0  0  0  0
   -9.9781  -33.8706   26.6105 C   0  0  0  0  0  0  0  0  0  0  0  0
   -9.5982  -32.4732   28.3366 S   0  0  0  0  0  0  0  0  0  0  0  0
   -9.9297  -28.1447   30.5895 H   0  0  0  0  0  0  0  0  0  0  0  0
   -8.7415  -26.9914   30.2763 H   0  0  0  0  0  0  0  0  0  0  0  0
  -10.0600  -27.1393   28.9931 H   0  0  0  0  0  0  0  0  0  0  0  0
   -9.5846  -28.6482   26.0670 H   0  0  0  0  0  0  0  0  0  0  0  0
  -11.3483  -28.6440   26.8743 H   0  0  0  0  0  0  0  0  0  0  0  0
  -12.8980  -26.8363   26.7690 H   0  0  0  0  0  0  0  0  0  0  0  0
  -13.4148  -24.8265   25.5931 H   0  0  0  0  0  0  0  0  0  0  0  0
  -11.7476  -23.8431   24.0541 H   0  0  0  0  0  0  0  0  0  0  0  0
   -9.2810  -27.0133   24.5880 H   0  0  0  0  0  0  0  0  0  0  0  0
  -11.4163  -35.7043   23.5402 H   0  0  0  0  0  0  0  0  0  0  0  0
   -9.6517  -36.7505   24.8952 H   0  0  0  0  0  0  0  0  0  0  0  0
   -8.8018  -35.6614   26.9745 H   0  0  0  0  0  0  0  0  0  0  0  0
  1  2  1  0
  2  3  2  0
  2  4  1  0
  4  5  1  0
  5  6  1  0
  6  7  2  0
  7  8  1  0
  8  9  2  0
  9 10  1  0
 10 11  2  0
  4 12  1  0
 12 13  2  0
 13 14  1  0
 14 15  2  0
 15 16  1  0
 15 17  1  0
 17 18  2  0
 18 19  1  0
 19 20  2  0
 20 21  1  0
 11  6  1  0
 21 12  1  0
 20 14  1  0
  1 22  1  0
  1 23  1  0
  1 24  1  0
  5 25  1  0
  5 26  1  0
  7 27  1  0
  8 28  1  0
  9 29  1  0
 11 30  1  0
 17 31  1  0
 18 32  1  0
 19 33  1  0
M  END
>  <Energy>  (1342) 
398.66137909519745

>  <compound_id>  (1342) 
6730

>  <target_id>  (1342) 
1

>  <reference_id>  (1342) 
68

>  <inspiration_ids>  (1342) 
[68, 82]

>  <energy_score>  (1342) 
296.14175599968337

>  <distance_score>  (1342) 
6.003887790132209

>  <path>  (1342) 
/opt/xchem-fragalysis-2/maxwin/BulkDock/SCRATCH/511018/C6730-P68/C6730-P68.minimised.mol

>  <scratch_subdir>  (1342) 
/opt/xchem-fragalysis-2/maxwin/BulkDock/SCRATCH/511018/C6730-P68

>  <fragmenstein_runtime>  (1342) 
13.944406986236572

>  <fragmenstein_outcome>  (1342) 
too moved

>  <fragmenstein_mode>  (1342) 
expansion

>  <fragmenstein_error>  (1342) 


$$$$
C6730-P82
     RDKit          3D

 33 35  0  0  0  0  0  0  0  0999 V2000
  -16.8131  -29.8356   28.3875 C   0  0  0  0  0  0  0  0  0  0  0  0
  -15.5485  -30.5533   27.9678 C   0  0  0  0  0  0  0  0  0  0  0  0
  -14.7337  -30.8852   28.7898 O   0  0  0  0  0  0  0  0  0  0  0  0
  -15.5596  -30.7202   26.5498 N   0  0  0  0  0  0  0  0  0  0  0  0
  -14.8724  -29.4354   25.8231 C   0  0  0  0  0  0  0  0  0  0  0  0
  -13.9514  -28.4553   26.5711 C   0  0  0  0  0  0  0  0  0  0  0  0
  -13.9698  -27.0969   26.1927 C   0  0  0  0  0  0  0  0  0  0  0  0
  -13.1104  -26.1640   26.7808 C   0  0  0  0  0  0  0  0  0  0  0  0
  -12.2513  -26.6016   27.7647 C   0  0  0  0  0  0  0  0  0  0  0  0
  -12.2066  -27.8869   28.1658 N   0  0  0  0  0  0  0  0  0  0  0  0
  -13.0111  -28.7817   27.5375 C   0  0  0  0  0  0  0  0  0  0  0  0
  -14.6557  -31.4281   25.6777 C   0  0  0  0  0  0  0  0  0  0  0  0
  -15.0220  -31.9341   24.5147 N   0  0  0  0  0  0  0  0  0  0  0  0
  -14.1416  -32.9513   24.1024 C   0  0  0  0  0  0  0  0  0  0  0  0
  -14.2085  -33.7738   22.9560 C   0  0  0  0  0  0  0  0  0  0  0  0
  -15.5719  -33.5517   21.9474 Cl  0  0  0  0  0  0  0  0  0  0  0  0
  -13.2149  -34.7045   22.6486 C   0  0  0  0  0  0  0  0  0  0  0  0
  -12.1215  -34.8400   23.4921 C   0  0  0  0  0  0  0  0  0  0  0  0
  -12.0215  -34.0653   24.6507 C   0  0  0  0  0  0  0  0  0  0  0  0
  -13.0418  -33.1363   24.9396 C   0  0  0  0  0  0  0  0  0  0  0  0
  -13.2038  -32.0745   26.2756 S   0  0  0  0  0  0  0  0  0  0  0  0
  -17.5670  -29.8444   27.5947 H   0  0  0  0  0  0  0  0  0  0  0  0
  -16.5737  -28.7995   28.6385 H   0  0  0  0  0  0  0  0  0  0  0  0
  -17.2351  -30.3387   29.2623 H   0  0  0  0  0  0  0  0  0  0  0  0
  -15.7969  -28.8407   25.7058 H   0  0  0  0  0  0  0  0  0  0  0  0
  -14.5638  -29.5279   24.7715 H   0  0  0  0  0  0  0  0  0  0  0  0
  -14.6385  -26.7527   25.4039 H   0  0  0  0  0  0  0  0  0  0  0  0
  -13.1123  -25.1222   26.4750 H   0  0  0  0  0  0  0  0  0  0  0  0
  -11.5742  -25.9228   28.2753 H   0  0  0  0  0  0  0  0  0  0  0  0
  -12.8478  -29.7943   27.8858 H   0  0  0  0  0  0  0  0  0  0  0  0
  -13.2908  -35.3149   21.7526 H   0  0  0  0  0  0  0  0  0  0  0  0
  -11.3376  -35.5575   23.2554 H   0  0  0  0  0  0  0  0  0  0  0  0
  -11.1698  -34.1848   25.3135 H   0  0  0  0  0  0  0  0  0  0  0  0
  1  2  1  0
  2  3  2  0
  2  4  1  0
  4  5  1  0
  5  6  1  0
  6  7  2  0
  7  8  1  0
  8  9  2  0
  9 10  1  0
 10 11  2  0
  4 12  1  0
 12 13  2  0
 13 14  1  0
 14 15  2  0
 15 16  1  0
 15 17  1  0
 17 18  2  0
 18 19  1  0
 19 20  2  0
 20 21  1  0
 11  6  1  0
 21 12  1  0
 20 14  1  0
  1 22  1  0
  1 23  1  0
  1 24  1  0
  5 25  1  0
  5 26  1  0
  7 27  1  0
  8 28  1  0
  9 29  1  0
 11 30  1  0
 17 31  1  0
 18 32  1  0
 19 33  1  0
M  END
>  <Energy>  (1343) 
115.18440909464488

>  <compound_id>  (1343) 
6730

>  <target_id>  (1343) 
1

>  <reference_id>  (1343) 
82

>  <inspiration_ids>  (1343) 
[68, 82]

>  <energy_score>  (1343) 
12.664785999132619

>  <distance_score>  (1343) 
6.201908766264975

>  <path>  (1343) 
/opt/xchem-fragalysis-2/maxwin/BulkDock/SCRATCH/511018/C6730-P82/C6730-P82.minimised.mol

>  <scratch_subdir>  (1343) 
/opt/xchem-fragalysis-2/maxwin/BulkDock/SCRATCH/511018/C6730-P82

>  <fragmenstein_runtime>  (1343) 
3.7038209438323975

>  <fragmenstein_outcome>  (1343) 
too moved

>  <fragmenstein_mode>  (1343) 
expansion

>  <fragmenstein_error>  (1343) 


$$$$
C6731-P68
     RDKit          3D

 36 38  0  0  0  0  0  0  0  0999 V2000
  -17.8800  -30.4907   26.2974 C   0  0  0  0  0  0  0  0  0  0  0  0
  -16.8132  -30.1724   25.2012 C   0  0  0  0  0  0  0  0  0  0  0  0
  -17.5873  -30.4774   23.8930 C   0  0  0  0  0  0  0  0  0  0  0  0
  -15.5088  -31.2910   25.5235 C   0  0  0  0  0  0  0  0  0  0  0  0
  -15.0107  -31.1704   26.5873 O   0  0  0  0  0  0  0  0  0  0  0  0
  -15.1183  -32.2406   24.3052 N   0  0  0  0  0  0  0  0  0  0  0  0
  -14.0159  -33.1221   24.1410 C   0  0  0  0  0  0  0  0  0  0  0  0
  -13.7030  -33.8355   23.0711 N   0  0  0  0  0  0  0  0  0  0  0  0
  -12.4253  -34.4502   23.1725 C   0  0  0  0  0  0  0  0  0  0  0  0
  -11.7389  -35.2642   22.2476 C   0  0  0  0  0  0  0  0  0  0  0  0
  -12.5748  -35.6186   20.7971 Cl  0  0  0  0  0  0  0  0  0  0  0  0
  -10.4468  -35.7360   22.4760 C   0  0  0  0  0  0  0  0  0  0  0  0
   -9.7976  -35.4012   23.6490 C   0  0  0  0  0  0  0  0  0  0  0  0
  -10.4440  -34.6229   24.6053 C   0  0  0  0  0  0  0  0  0  0  0  0
  -11.7555  -34.1735   24.3547 C   0  0  0  0  0  0  0  0  0  0  0  0
  -12.8175  -33.2616   25.3525 S   0  0  0  0  0  0  0  0  0  0  0  0
  -16.4088  -28.5320   25.3332 C   0  0  0  0  0  0  0  0  0  0  0  0
  -17.2045  -27.4228   25.0830 C   0  0  0  0  0  0  0  0  0  0  0  0
  -16.6450  -26.1107   25.0509 C   0  0  0  0  0  0  0  0  0  0  0  0
  -15.2945  -25.9043   25.2830 C   0  0  0  0  0  0  0  0  0  0  0  0
  -14.5347  -26.8716   25.7632 N   0  0  0  0  0  0  0  0  0  0  0  0
  -15.1361  -28.1020   25.7148 C   0  0  0  0  0  0  0  0  0  0  0  0
  -18.3558  -31.4606   26.1041 H   0  0  0  0  0  0  0  0  0  0  0  0
  -17.4672  -30.5876   27.3031 H   0  0  0  0  0  0  0  0  0  0  0  0
  -18.6695  -29.7319   26.3265 H   0  0  0  0  0  0  0  0  0  0  0  0
  -17.9323  -31.5187   23.8817 H   0  0  0  0  0  0  0  0  0  0  0  0
  -18.4729  -29.8378   23.8005 H   0  0  0  0  0  0  0  0  0  0  0  0
  -17.0170  -30.3527   22.9737 H   0  0  0  0  0  0  0  0  0  0  0  0
  -15.7054  -32.0320   23.5118 H   0  0  0  0  0  0  0  0  0  0  0  0
   -9.9481  -36.3503   21.7311 H   0  0  0  0  0  0  0  0  0  0  0  0
   -8.7857  -35.7561   23.8361 H   0  0  0  0  0  0  0  0  0  0  0  0
   -9.9392  -34.3770   25.5358 H   0  0  0  0  0  0  0  0  0  0  0  0
  -18.2538  -27.5440   24.8231 H   0  0  0  0  0  0  0  0  0  0  0  0
  -17.2704  -25.2705   24.7587 H   0  0  0  0  0  0  0  0  0  0  0  0
  -14.8279  -24.9359   25.1263 H   0  0  0  0  0  0  0  0  0  0  0  0
  -14.5782  -28.8927   26.1713 H   0  0  0  0  0  0  0  0  0  0  0  0
  1  2  1  0
  2  3  1  0
  2  4  1  0
  4  5  2  0
  4  6  1  0
  6  7  1  0
  7  8  2  0
  8  9  1  0
  9 10  2  0
 10 11  1  0
 10 12  1  0
 12 13  2  0
 13 14  1  0
 14 15  2  0
 15 16  1  0
  2 17  1  0
 17 18  2  0
 18 19  1  0
 19 20  2  0
 20 21  1  0
 21 22  2  0
 16  7  1  0
 22 17  1  0
 15  9  1  0
  1 23  1  0
  1 24  1  0
  1 25  1  0
  3 26  1  0
  3 27  1  0
  3 28  1  0
  6 29  1  0
 12 30  1  0
 13 31  1  0
 14 32  1  0
 18 33  1  0
 19 34  1  0
 20 35  1  0
 22 36  1  0
M  END
>  <Energy>  (1344) 
99.800624040753846

>  <compound_id>  (1344) 
6731

>  <target_id>  (1344) 
1

>  <reference_id>  (1344) 
68

>  <inspiration_ids>  (1344) 
[68, 82]

>  <energy_score>  (1344) 
-39.33431074678049

>  <distance_score>  (1344) 
6.827338857829302

>  <path>  (1344) 
/opt/xchem-fragalysis-2/maxwin/BulkDock/SCRATCH/511018/C6731-P68/C6731-P68.minimised.mol

>  <scratch_subdir>  (1344) 
/opt/xchem-fragalysis-2/maxwin/BulkDock/SCRATCH/511018/C6731-P68

>  <fragmenstein_runtime>  (1344) 
7.051633834838867

>  <fragmenstein_outcome>  (1344) 
too moved

>  <fragmenstein_mode>  (1344) 
expansion

>  <fragmenstein_error>  (1344) 


$$$$
C6731-P82
     RDKit          3D

 36 38  0  0  0  0  0  0  0  0999 V2000
  -13.2524  -28.6778   27.3862 C   0  0  0  0  0  0  0  0  0  0  0  0
  -11.9406  -28.0246   26.9295 C   0  0  0  0  0  0  0  0  0  0  0  0
  -12.2847  -27.2201   25.6373 C   0  0  0  0  0  0  0  0  0  0  0  0
  -10.9072  -29.2526   26.2844 C   0  0  0  0  0  0  0  0  0  0  0  0
   -9.9253  -28.8229   25.7546 O   0  0  0  0  0  0  0  0  0  0  0  0
  -11.4676  -30.8001   26.3917 N   0  0  0  0  0  0  0  0  0  0  0  0
  -10.9503  -32.0667   25.7701 C   0  0  0  0  0  0  0  0  0  0  0  0
  -11.6908  -33.1544   25.6067 N   0  0  0  0  0  0  0  0  0  0  0  0
  -11.0987  -34.1584   24.8023 C   0  0  0  0  0  0  0  0  0  0  0  0
  -11.5700  -35.4597   24.5444 C   0  0  0  0  0  0  0  0  0  0  0  0
  -13.0032  -35.9236   25.3542 Cl  0  0  0  0  0  0  0  0  0  0  0  0
  -10.9266  -36.3085   23.6494 C   0  0  0  0  0  0  0  0  0  0  0  0
   -9.7936  -35.8669   22.9786 C   0  0  0  0  0  0  0  0  0  0  0  0
   -9.2675  -34.6002   23.2269 C   0  0  0  0  0  0  0  0  0  0  0  0
   -9.9259  -33.7829   24.1627 C   0  0  0  0  0  0  0  0  0  0  0  0
   -9.4591  -32.2407   24.7506 S   0  0  0  0  0  0  0  0  0  0  0  0
  -11.4802  -26.8284   28.0066 C   0  0  0  0  0  0  0  0  0  0  0  0
  -12.4041  -25.8988   28.4950 C   0  0  0  0  0  0  0  0  0  0  0  0
  -12.1410  -25.0479   29.5883 C   0  0  0  0  0  0  0  0  0  0  0  0
  -10.8950  -25.0472   30.1416 C   0  0  0  0  0  0  0  0  0  0  0  0
   -9.8965  -25.6854   29.5455 N   0  0  0  0  0  0  0  0  0  0  0  0
  -10.2130  -26.4648   28.4646 C   0  0  0  0  0  0  0  0  0  0  0  0
  -13.6449  -29.3721   26.6355 H   0  0  0  0  0  0  0  0  0  0  0  0
  -13.1161  -29.2222   28.3253 H   0  0  0  0  0  0  0  0  0  0  0  0
  -14.0523  -27.9480   27.5068 H   0  0  0  0  0  0  0  0  0  0  0  0
  -13.0941  -26.4988   25.7947 H   0  0  0  0  0  0  0  0  0  0  0  0
  -12.6002  -27.8881   24.8275 H   0  0  0  0  0  0  0  0  0  0  0  0
  -11.4118  -26.6624   25.2779 H   0  0  0  0  0  0  0  0  0  0  0  0
  -12.3688  -30.8048   26.8388 H   0  0  0  0  0  0  0  0  0  0  0  0
  -11.3187  -37.3035   23.4577 H   0  0  0  0  0  0  0  0  0  0  0  0
   -9.2947  -36.5206   22.2655 H   0  0  0  0  0  0  0  0  0  0  0  0
   -8.3588  -34.2600   22.7334 H   0  0  0  0  0  0  0  0  0  0  0  0
  -13.3731  -25.8092   28.0237 H   0  0  0  0  0  0  0  0  0  0  0  0
  -12.9111  -24.4220   30.0197 H   0  0  0  0  0  0  0  0  0  0  0  0
  -10.6533  -24.4719   31.0256 H   0  0  0  0  0  0  0  0  0  0  0  0
   -9.3097  -26.7373   27.9279 H   0  0  0  0  0  0  0  0  0  0  0  0
  1  2  1  0
  2  3  1  0
  2  4  1  0
  4  5  2  0
  4  6  1  0
  6  7  1  0
  7  8  2  0
  8  9  1  0
  9 10  2  0
 10 11  1  0
 10 12  1  0
 12 13  2  0
 13 14  1  0
 14 15  2  0
 15 16  1  0
  2 17  1  0
 17 18  2  0
 18 19  1  0
 19 20  2  0
 20 21  1  0
 21 22  2  0
 16  7  1  0
 22 17  1  0
 15  9  1  0
  1 23  1  0
  1 24  1  0
  1 25  1  0
  3 26  1  0
  3 27  1  0
  3 28  1  0
  6 29  1  0
 12 30  1  0
 13 31  1  0
 14 32  1  0
 18 33  1  0
 19 34  1  0
 20 35  1  0
 22 36  1  0
M  END
>  <Energy>  (1345) 
128.56179513606779

>  <compound_id>  (1345) 
6731

>  <target_id>  (1345) 
1

>  <reference_id>  (1345) 
82

>  <inspiration_ids>  (1345) 
[68, 82]

>  <energy_score>  (1345) 
-10.573139651463634

>  <distance_score>  (1345) 
3.9478838946250048

>  <path>  (1345) 
/opt/xchem-fragalysis-2/maxwin/BulkDock/SCRATCH/511018/C6731-P82/C6731-P82.minimised.mol

>  <scratch_subdir>  (1345) 
/opt/xchem-fragalysis-2/maxwin/BulkDock/SCRATCH/511018/C6731-P82

>  <fragmenstein_runtime>  (1345) 
3.3317930698394775

>  <fragmenstein_outcome>  (1345) 
too moved

>  <fragmenstein_mode>  (1345) 
expansion

>  <fragmenstein_error>  (1345) 


$$$$
C6732-P68
     RDKit          3D

 30 32  0  0  0  0  0  0  0  0999 V2000
  -12.6704  -31.3289   26.0697 C   0  0  0  0  0  0  0  0  0  0  0  0
  -12.8471  -30.5998   27.3241 N   0  0  0  0  0  0  0  0  0  0  0  0
  -11.6688  -29.0753   28.0548 C   0  0  0  0  0  0  0  0  0  0  0  0
  -10.7283  -28.4840   27.5316 O   0  0  0  0  0  0  0  0  0  0  0  0
  -12.0678  -28.5641   30.0769 C   0  0  0  0  0  0  0  0  0  0  0  0
  -13.0740  -29.2361   31.2737 C   0  0  0  0  0  0  0  0  0  0  0  0
  -13.0902  -30.4100   32.1049 C   0  0  0  0  0  0  0  0  0  0  0  0
  -11.9729  -30.4130   32.8130 C   0  0  0  0  0  0  0  0  0  0  0  0
  -11.1147  -29.4537   32.4430 N   0  0  0  0  0  0  0  0  0  0  0  0
  -11.1918  -28.5495   31.1988 C   0  0  0  0  0  0  0  0  0  0  0  0
  -14.2766  -30.5346   26.4826 C   0  0  0  0  0  0  0  0  0  0  0  0
  -15.1699  -31.0441   27.4115 N   0  0  0  0  0  0  0  0  0  0  0  0
  -15.2452  -32.4547   27.4229 C   0  0  0  0  0  0  0  0  0  0  0  0
  -15.4552  -33.3642   28.4705 C   0  0  0  0  0  0  0  0  0  0  0  0
  -15.8161  -32.6925   29.9982 Cl  0  0  0  0  0  0  0  0  0  0  0  0
  -15.4101  -34.7436   28.2434 C   0  0  0  0  0  0  0  0  0  0  0  0
  -15.2154  -35.2353   26.9520 C   0  0  0  0  0  0  0  0  0  0  0  0
  -15.1244  -34.3627   25.8661 C   0  0  0  0  0  0  0  0  0  0  0  0
  -15.1574  -32.9918   26.1505 C   0  0  0  0  0  0  0  0  0  0  0  0
  -15.2716  -31.6211   25.1362 S   0  0  0  0  0  0  0  0  0  0  0  0
  -12.9820  -31.8238   25.1505 H   0  0  0  0  0  0  0  0  0  0  0  0
  -11.6285  -31.5868   26.1753 H   0  0  0  0  0  0  0  0  0  0  0  0
  -12.9065  -32.3147   26.5270 H   0  0  0  0  0  0  0  0  0  0  0  0
  -13.0870  -28.6249   32.2470 H   0  0  0  0  0  0  0  0  0  0  0  0
  -13.9684  -30.9913   32.3298 H   0  0  0  0  0  0  0  0  0  0  0  0
  -11.7267  -31.0541   33.6421 H   0  0  0  0  0  0  0  0  0  0  0  0
  -10.2010  -28.1542   31.0381 H   0  0  0  0  0  0  0  0  0  0  0  0
  -15.5482  -35.4312   29.0743 H   0  0  0  0  0  0  0  0  0  0  0  0
  -15.1997  -36.3104   26.7823 H   0  0  0  0  0  0  0  0  0  0  0  0
  -15.0633  -34.7311   24.8470 H   0  0  0  0  0  0  0  0  0  0  0  0
  1  2  1  0
  2  3  1  0
  3  4  2  0
  3  5  1  0
  5  6  2  0
  6  7  1  0
  7  8  2  0
  8  9  1  0
  9 10  2  0
  2 11  1  0
 11 12  2  0
 12 13  1  0
 13 14  2  0
 14 15  1  0
 14 16  1  0
 16 17  2  0
 17 18  1  0
 18 19  2  0
 19 20  1  0
 10  5  1  0
 20 11  1  0
 19 13  1  0
  1 21  1  0
  1 22  1  0
  1 23  1  0
  6 24  1  0
  7 25  1  0
  8 26  1  0
 10 27  1  0
 16 28  1  0
 17 29  1  0
 18 30  1  0
M  END
>  <Energy>  (1346) 
772.19798176303595

>  <compound_id>  (1346) 
6732

>  <target_id>  (1346) 
1

>  <reference_id>  (1346) 
68

>  <inspiration_ids>  (1346) 
[68, 82]

>  <energy_score>  (1346) 
661.1746070376641

>  <distance_score>  (1346) 
7.146302308764723

>  <path>  (1346) 
/opt/xchem-fragalysis-2/maxwin/BulkDock/SCRATCH/511018/C6732-P68/C6732-P68.minimised.mol

>  <scratch_subdir>  (1346) 
/opt/xchem-fragalysis-2/maxwin/BulkDock/SCRATCH/511018/C6732-P68

>  <fragmenstein_runtime>  (1346) 
7.625409841537476

>  <fragmenstein_outcome>  (1346) 
too moved

>  <fragmenstein_mode>  (1346) 
expansion

>  <fragmenstein_error>  (1346) 


$$$$
C6732-P82
     RDKit          3D

 30 32  0  0  0  0  0  0  0  0999 V2000
   -7.4627  -31.5599   28.0772 C   0  0  0  0  0  0  0  0  0  0  0  0
   -8.6146  -30.6628   28.5922 N   0  0  0  0  0  0  0  0  0  0  0  0
   -8.3625  -28.9342   29.9842 C   0  0  0  0  0  0  0  0  0  0  0  0
   -7.3577  -28.4345   30.4274 O   0  0  0  0  0  0  0  0  0  0  0  0
   -9.8661  -27.8729   30.5185 C   0  0  0  0  0  0  0  0  0  0  0  0
  -10.9783  -27.4310   29.7040 C   0  0  0  0  0  0  0  0  0  0  0  0
  -11.5987  -26.1587   29.7820 C   0  0  0  0  0  0  0  0  0  0  0  0
  -11.1954  -25.2719   30.7409 C   0  0  0  0  0  0  0  0  0  0  0  0
  -10.1491  -25.5383   31.5111 N   0  0  0  0  0  0  0  0  0  0  0  0
   -9.5142  -26.7478   31.2905 C   0  0  0  0  0  0  0  0  0  0  0  0
   -8.7220  -30.5526   26.7473 C   0  0  0  0  0  0  0  0  0  0  0  0
   -9.5722  -31.4159   26.1341 N   0  0  0  0  0  0  0  0  0  0  0  0
   -9.0660  -31.7892   24.8722 C   0  0  0  0  0  0  0  0  0  0  0  0
   -9.2552  -32.9567   24.0437 C   0  0  0  0  0  0  0  0  0  0  0  0
  -10.3353  -34.1837   24.5634 Cl  0  0  0  0  0  0  0  0  0  0  0  0
   -8.6832  -33.0511   22.7823 C   0  0  0  0  0  0  0  0  0  0  0  0
   -8.0136  -31.9526   22.2696 C   0  0  0  0  0  0  0  0  0  0  0  0
   -7.9653  -30.7207   22.9484 C   0  0  0  0  0  0  0  0  0  0  0  0
   -8.4976  -30.6429   24.2503 C   0  0  0  0  0  0  0  0  0  0  0  0
   -8.6422  -29.3594   25.5299 S   0  0  0  0  0  0  0  0  0  0  0  0
   -7.7541  -32.0310   27.2297 H   0  0  0  0  0  0  0  0  0  0  0  0
   -6.9897  -30.7867   27.5318 H   0  0  0  0  0  0  0  0  0  0  0  0
   -6.8867  -32.0789   28.8650 H   0  0  0  0  0  0  0  0  0  0  0  0
  -11.3837  -28.0067   28.8758 H   0  0  0  0  0  0  0  0  0  0  0  0
  -12.3881  -25.8742   29.0957 H   0  0  0  0  0  0  0  0  0  0  0  0
  -11.6824  -24.3135   30.8819 H   0  0  0  0  0  0  0  0  0  0  0  0
   -8.5335  -26.6910   31.7411 H   0  0  0  0  0  0  0  0  0  0  0  0
   -8.7854  -33.9483   22.1806 H   0  0  0  0  0  0  0  0  0  0  0  0
   -7.5522  -32.0212   21.2856 H   0  0  0  0  0  0  0  0  0  0  0  0
   -7.4802  -29.8813   22.4705 H   0  0  0  0  0  0  0  0  0  0  0  0
  1  2  1  0
  2  3  1  0
  3  4  2  0
  3  5  1  0
  5  6  2  0
  6  7  1  0
  7  8  2  0
  8  9  1  0
  9 10  2  0
  2 11  1  0
 11 12  2  0
 12 13  1  0
 13 14  2  0
 14 15  1  0
 14 16  1  0
 16 17  2  0
 17 18  1  0
 18 19  2  0
 19 20  1  0
 10  5  1  0
 20 11  1  0
 19 13  1  0
  1 21  1  0
  1 22  1  0
  1 23  1  0
  6 24  1  0
  7 25  1  0
  8 26  1  0
 10 27  1  0
 16 28  1  0
 17 29  1  0
 18 30  1  0
M  END
>  <Energy>  (1347) 
658.47360104274503

>  <compound_id>  (1347) 
6732

>  <target_id>  (1347) 
1

>  <reference_id>  (1347) 
82

>  <inspiration_ids>  (1347) 
[68, 82]

>  <energy_score>  (1347) 
547.4502263173683

>  <distance_score>  (1347) 
4.764422940271647

>  <path>  (1347) 
/opt/xchem-fragalysis-2/maxwin/BulkDock/SCRATCH/511018/C6732-P82/C6732-P82.minimised.mol

>  <scratch_subdir>  (1347) 
/opt/xchem-fragalysis-2/maxwin/BulkDock/SCRATCH/511018/C6732-P82

>  <fragmenstein_runtime>  (1347) 
4.18170690536499

>  <fragmenstein_outcome>  (1347) 
too moved

>  <fragmenstein_mode>  (1347) 
expansion

>  <fragmenstein_error>  (1347) 


$$$$
C6733-P68
     RDKit          3D

 28 30  0  0  0  0  0  0  0  0999 V2000
  -13.6334  -33.0626   24.6998 Cl  0  0  0  0  0  0  0  0  0  0  0  0
  -12.0732  -33.7447   24.7050 C   0  0  0  0  0  0  0  0  0  0  0  0
  -11.7857  -34.8566   23.9086 C   0  0  0  0  0  0  0  0  0  0  0  0
  -10.6184  -35.5796   24.1192 C   0  0  0  0  0  0  0  0  0  0  0  0
   -9.7723  -35.2622   25.1833 C   0  0  0  0  0  0  0  0  0  0  0  0
  -10.0851  -34.1381   25.9814 C   0  0  0  0  0  0  0  0  0  0  0  0
   -9.2233  -33.7328   27.6393 S   0  0  0  0  0  0  0  0  0  0  0  0
  -10.0978  -31.6230   27.8605 C   0  0  0  0  0  0  0  0  0  0  0  0
   -9.6156  -29.9722   27.8678 N   0  0  0  0  0  0  0  0  0  0  0  0
   -8.7731  -28.9887   29.1460 C   0  0  0  0  0  0  0  0  0  0  0  0
   -9.4208  -27.8971   30.2129 C   0  0  0  0  0  0  0  0  0  0  0  0
   -8.5161  -26.6155   30.4875 C   0  0  0  0  0  0  0  0  0  0  0  0
   -8.7362  -25.6458   31.5031 C   0  0  0  0  0  0  0  0  0  0  0  0
   -9.7369  -26.0036   32.3277 C   0  0  0  0  0  0  0  0  0  0  0  0
  -10.8682  -27.2502   32.2834 N   0  0  0  0  0  0  0  0  0  0  0  0
  -10.6379  -28.1998   31.3046 C   0  0  0  0  0  0  0  0  0  0  0  0
  -11.2526  -31.8712   26.6415 N   0  0  0  0  0  0  0  0  0  0  0  0
  -11.1715  -33.2756   25.6829 C   0  0  0  0  0  0  0  0  0  0  0  0
  -12.4937  -35.1827   23.1503 H   0  0  0  0  0  0  0  0  0  0  0  0
  -10.3999  -36.4486   23.5014 H   0  0  0  0  0  0  0  0  0  0  0  0
   -8.9180  -35.8893   25.4198 H   0  0  0  0  0  0  0  0  0  0  0  0
  -10.2625  -29.3632   27.3652 H   0  0  0  0  0  0  0  0  0  0  0  0
   -8.3639  -29.6854   29.8460 H   0  0  0  0  0  0  0  0  0  0  0  0
   -7.8628  -28.5983   28.6907 H   0  0  0  0  0  0  0  0  0  0  0  0
   -7.4980  -26.5777   30.1081 H   0  0  0  0  0  0  0  0  0  0  0  0
   -8.3891  -24.7563   31.8747 H   0  0  0  0  0  0  0  0  0  0  0  0
  -10.1010  -25.1719   32.8912 H   0  0  0  0  0  0  0  0  0  0  0  0
  -11.4631  -28.8868   31.3039 H   0  0  0  0  0  0  0  0  0  0  0  0
  1  2  1  0
  2  3  2  0
  3  4  1  0
  4  5  2  0
  5  6  1  0
  6  7  1  0
  7  8  1  0
  8  9  1  0
  9 10  1  0
 10 11  1  0
 11 12  2  0
 12 13  1  0
 13 14  2  0
 14 15  1  0
 15 16  2  0
  8 17  2  0
 17 18  1  0
 18  2  1  0
 18  6  2  0
 16 11  1  0
  3 19  1  0
  4 20  1  0
  5 21  1  0
  9 22  1  0
 10 23  1  0
 10 24  1  0
 12 25  1  0
 13 26  1  0
 14 27  1  0
 16 28  1  0
M  END
>  <Energy>  (1348) 
383.89231303912567

>  <compound_id>  (1348) 
6733

>  <target_id>  (1348) 
1

>  <reference_id>  (1348) 
68

>  <inspiration_ids>  (1348) 
[68, 82]

>  <energy_score>  (1348) 
309.63155252747106

>  <distance_score>  (1348) 
4.645213231037217

>  <path>  (1348) 
/opt/xchem-fragalysis-2/maxwin/BulkDock/SCRATCH/511018/C6733-P68/C6733-P68.minimised.mol

>  <scratch_subdir>  (1348) 
/opt/xchem-fragalysis-2/maxwin/BulkDock/SCRATCH/511018/C6733-P68

>  <fragmenstein_runtime>  (1348) 
4.541875123977661

>  <fragmenstein_outcome>  (1348) 
too moved

>  <fragmenstein_mode>  (1348) 
expansion

>  <fragmenstein_error>  (1348) 


$$$$
C6733-P82
     RDKit          3D

 28 30  0  0  0  0  0  0  0  0999 V2000
  -11.2592  -34.5526   25.1887 Cl  0  0  0  0  0  0  0  0  0  0  0  0
   -9.9676  -34.1776   24.1390 C   0  0  0  0  0  0  0  0  0  0  0  0
   -9.6572  -35.0797   23.1279 C   0  0  0  0  0  0  0  0  0  0  0  0
   -8.7776  -34.6932   22.1343 C   0  0  0  0  0  0  0  0  0  0  0  0
   -8.2302  -33.4060   22.1258 C   0  0  0  0  0  0  0  0  0  0  0  0
   -8.5482  -32.5094   23.1676 C   0  0  0  0  0  0  0  0  0  0  0  0
   -8.1490  -30.8076   23.2801 S   0  0  0  0  0  0  0  0  0  0  0  0
   -8.9771  -30.6293   24.9969 C   0  0  0  0  0  0  0  0  0  0  0  0
   -9.1496  -29.3352   25.7225 N   0  0  0  0  0  0  0  0  0  0  0  0
  -10.4170  -28.3118   25.7204 C   0  0  0  0  0  0  0  0  0  0  0  0
  -10.7288  -27.0144   26.8306 C   0  0  0  0  0  0  0  0  0  0  0  0
  -12.0373  -26.5338   26.9413 C   0  0  0  0  0  0  0  0  0  0  0  0
  -12.3875  -25.6155   27.9475 C   0  0  0  0  0  0  0  0  0  0  0  0
  -11.4592  -25.1989   28.8824 C   0  0  0  0  0  0  0  0  0  0  0  0
  -10.1850  -25.5838   28.8249 N   0  0  0  0  0  0  0  0  0  0  0  0
   -9.8675  -26.4305   27.7994 C   0  0  0  0  0  0  0  0  0  0  0  0
   -9.5524  -31.8336   25.2291 N   0  0  0  0  0  0  0  0  0  0  0  0
   -9.3678  -32.8866   24.2288 C   0  0  0  0  0  0  0  0  0  0  0  0
  -10.1291  -36.0568   23.0876 H   0  0  0  0  0  0  0  0  0  0  0  0
   -8.5332  -35.3767   21.3240 H   0  0  0  0  0  0  0  0  0  0  0  0
   -7.5883  -33.0798   21.3098 H   0  0  0  0  0  0  0  0  0  0  0  0
   -8.3128  -28.7892   25.5563 H   0  0  0  0  0  0  0  0  0  0  0  0
  -11.2843  -28.9364   25.9529 H   0  0  0  0  0  0  0  0  0  0  0  0
  -10.5262  -27.8665   24.7281 H   0  0  0  0  0  0  0  0  0  0  0  0
  -12.8011  -26.8796   26.2492 H   0  0  0  0  0  0  0  0  0  0  0  0
  -13.3936  -25.2374   28.0026 H   0  0  0  0  0  0  0  0  0  0  0  0
  -11.7295  -24.5201   29.6850 H   0  0  0  0  0  0  0  0  0  0  0  0
   -8.8186  -26.7022   27.8306 H   0  0  0  0  0  0  0  0  0  0  0  0
  1  2  1  0
  2  3  2  0
  3  4  1  0
  4  5  2  0
  5  6  1  0
  6  7  1  0
  7  8  1  0
  8  9  1  0
  9 10  1  0
 10 11  1  0
 11 12  2  0
 12 13  1  0
 13 14  2  0
 14 15  1  0
 15 16  2  0
  8 17  2  0
 17 18  1  0
 18  2  1  0
 18  6  2  0
 16 11  1  0
  3 19  1  0
  4 20  1  0
  5 21  1  0
  9 22  1  0
 10 23  1  0
 10 24  1  0
 12 25  1  0
 13 26  1  0
 14 27  1  0
 16 28  1  0
M  END
>  <Energy>  (1349) 
92.107294292457851

>  <compound_id>  (1349) 
6733

>  <target_id>  (1349) 
1

>  <reference_id>  (1349) 
82

>  <inspiration_ids>  (1349) 
[68, 82]

>  <energy_score>  (1349) 
23.386681338799008

>  <distance_score>  (1349) 
4.560059684221123

>  <path>  (1349) 
/opt/xchem-fragalysis-2/maxwin/BulkDock/SCRATCH/511018/C6733-P82/C6733-P82.minimised.mol

>  <scratch_subdir>  (1349) 
/opt/xchem-fragalysis-2/maxwin/BulkDock/SCRATCH/511018/C6733-P82

>  <fragmenstein_runtime>  (1349) 
2.355865478515625

>  <fragmenstein_outcome>  (1349) 
too moved

>  <fragmenstein_mode>  (1349) 
expansion

>  <fragmenstein_error>  (1349) 


$$$$
C6734-P68
     RDKit          3D

 34 36  0  0  0  0  0  0  0  0999 V2000
  -14.7750  -33.5199   28.2770 C   0  0  0  0  0  0  0  0  0  0  0  0
  -14.6868  -32.0651   27.8777 C   0  0  0  0  0  0  0  0  0  0  0  0
  -15.6980  -31.4325   28.0041 O   0  0  0  0  0  0  0  0  0  0  0  0
  -13.3829  -31.6890   27.3008 N   0  0  0  0  0  0  0  0  0  0  0  0
  -12.9332  -30.3806   26.5701 N   0  0  0  0  0  0  0  0  0  0  0  0
  -11.5236  -29.1065   26.9970 C   0  0  0  0  0  0  0  0  0  0  0  0
  -10.6741  -29.1281   27.8460 O   0  0  0  0  0  0  0  0  0  0  0  0
  -11.6091  -27.6303   26.0683 C   0  0  0  0  0  0  0  0  0  0  0  0
  -12.8525  -26.9228   25.8789 C   0  0  0  0  0  0  0  0  0  0  0  0
  -12.9501  -25.5227   25.7337 C   0  0  0  0  0  0  0  0  0  0  0  0
  -11.7914  -24.7928   25.8057 C   0  0  0  0  0  0  0  0  0  0  0  0
  -10.6112  -25.3702   26.0681 N   0  0  0  0  0  0  0  0  0  0  0  0
  -10.6364  -26.7166   26.3245 C   0  0  0  0  0  0  0  0  0  0  0  0
  -12.8805  -31.7004   25.5001 C   0  0  0  0  0  0  0  0  0  0  0  0
  -14.0214  -32.2361   25.0040 N   0  0  0  0  0  0  0  0  0  0  0  0
  -13.8157  -33.3160   24.1280 C   0  0  0  0  0  0  0  0  0  0  0  0
  -14.7215  -33.9213   23.2366 C   0  0  0  0  0  0  0  0  0  0  0  0
  -16.2996  -33.2674   23.2007 Cl  0  0  0  0  0  0  0  0  0  0  0  0
  -14.3428  -34.9809   22.4108 C   0  0  0  0  0  0  0  0  0  0  0  0
  -13.0441  -35.4720   22.4705 C   0  0  0  0  0  0  0  0  0  0  0  0
  -12.1230  -34.9259   23.3649 C   0  0  0  0  0  0  0  0  0  0  0  0
  -12.5427  -33.8575   24.1768 C   0  0  0  0  0  0  0  0  0  0  0  0
  -11.7049  -33.0739   25.4169 S   0  0  0  0  0  0  0  0  0  0  0  0
  -14.1959  -34.1454   27.5975 H   0  0  0  0  0  0  0  0  0  0  0  0
  -15.8154  -33.8445   28.1514 H   0  0  0  0  0  0  0  0  0  0  0  0
  -14.5198  -33.6738   29.3225 H   0  0  0  0  0  0  0  0  0  0  0  0
  -12.7850  -32.4990   27.2831 H   0  0  0  0  0  0  0  0  0  0  0  0
  -13.8145  -27.4266   25.8617 H   0  0  0  0  0  0  0  0  0  0  0  0
  -13.8860  -25.0306   25.5019 H   0  0  0  0  0  0  0  0  0  0  0  0
  -11.8090  -23.7168   25.6988 H   0  0  0  0  0  0  0  0  0  0  0  0
   -9.9752  -26.9983   27.1188 H   0  0  0  0  0  0  0  0  0  0  0  0
  -15.0594  -35.4179   21.7196 H   0  0  0  0  0  0  0  0  0  0  0  0
  -12.7471  -36.2971   21.8255 H   0  0  0  0  0  0  0  0  0  0  0  0
  -11.1143  -35.3246   23.4365 H   0  0  0  0  0  0  0  0  0  0  0  0
  1  2  1  0
  2  3  2  0
  2  4  1  0
  4  5  1  0
  5  6  1  0
  6  7  2  0
  6  8  1  0
  8  9  2  0
  9 10  1  0
 10 11  2  0
 11 12  1  0
 12 13  2  0
  5 14  1  0
 14 15  2  0
 15 16  1  0
 16 17  2  0
 17 18  1  0
 17 19  1  0
 19 20  2  0
 20 21  1  0
 21 22  2  0
 22 23  1  0
 13  8  1  0
 23 14  1  0
 22 16  1  0
  1 24  1  0
  1 25  1  0
  1 26  1  0
  4 27  1  0
  9 28  1  0
 10 29  1  0
 11 30  1  0
 13 31  1  0
 19 32  1  0
 20 33  1  0
 21 34  1  0
M  END
>  <Energy>  (1350) 
391.47192994799724

>  <compound_id>  (1350) 
6734

>  <target_id>  (1350) 
1

>  <reference_id>  (1350) 
68

>  <inspiration_ids>  (1350) 
[68, 82]

>  <energy_score>  (1350) 
224.31677780676125

>  <distance_score>  (1350) 
5.9658329032263655

>  <path>  (1350) 
/opt/xchem-fragalysis-2/maxwin/BulkDock/SCRATCH/511018/C6734-P68/C6734-P68.minimised.mol

>  <scratch_subdir>  (1350) 
/opt/xchem-fragalysis-2/maxwin/BulkDock/SCRATCH/511018/C6734-P68

>  <fragmenstein_runtime>  (1350) 
7.760864973068237

>  <fragmenstein_outcome>  (1350) 
too moved

>  <fragmenstein_mode>  (1350) 
expansion

>  <fragmenstein_error>  (1350) 


$$$$
C6734-P82
     RDKit          3D

 34 36  0  0  0  0  0  0  0  0999 V2000
  -17.0078  -36.0585   24.8638 C   0  0  0  0  0  0  0  0  0  0  0  0
  -16.4917  -34.6374   24.7703 C   0  0  0  0  0  0  0  0  0  0  0  0
  -16.8670  -33.9152   23.8935 O   0  0  0  0  0  0  0  0  0  0  0  0
  -15.5526  -34.4118   25.8371 N   0  0  0  0  0  0  0  0  0  0  0  0
  -14.8550  -33.2351   26.2321 N   0  0  0  0  0  0  0  0  0  0  0  0
  -14.6106  -32.6871   27.5298 C   0  0  0  0  0  0  0  0  0  0  0  0
  -14.8572  -33.1270   28.6259 O   0  0  0  0  0  0  0  0  0  0  0  0
  -14.0419  -31.2841   27.5246 C   0  0  0  0  0  0  0  0  0  0  0  0
  -13.9027  -30.4950   26.3821 C   0  0  0  0  0  0  0  0  0  0  0  0
  -13.3379  -29.2167   26.4646 C   0  0  0  0  0  0  0  0  0  0  0  0
  -12.9599  -28.7393   27.7027 C   0  0  0  0  0  0  0  0  0  0  0  0
  -13.1632  -29.4215   28.8510 N   0  0  0  0  0  0  0  0  0  0  0  0
  -13.6848  -30.6770   28.7329 C   0  0  0  0  0  0  0  0  0  0  0  0
  -13.7036  -34.0415   25.7839 C   0  0  0  0  0  0  0  0  0  0  0  0
  -13.1767  -35.1257   26.3209 N   0  0  0  0  0  0  0  0  0  0  0  0
  -12.0346  -35.5154   25.6025 C   0  0  0  0  0  0  0  0  0  0  0  0
  -11.1424  -36.5756   25.8705 C   0  0  0  0  0  0  0  0  0  0  0  0
  -11.5145  -37.5634   27.2151 Cl  0  0  0  0  0  0  0  0  0  0  0  0
  -10.0136  -36.8061   25.0832 C   0  0  0  0  0  0  0  0  0  0  0  0
   -9.7546  -35.9821   23.9944 C   0  0  0  0  0  0  0  0  0  0  0  0
  -10.6194  -34.9326   23.6740 C   0  0  0  0  0  0  0  0  0  0  0  0
  -11.7474  -34.7197   24.4888 C   0  0  0  0  0  0  0  0  0  0  0  0
  -12.9656  -33.5229   24.3338 S   0  0  0  0  0  0  0  0  0  0  0  0
  -16.1741  -36.7645   24.8108 H   0  0  0  0  0  0  0  0  0  0  0  0
  -17.6856  -36.2581   24.0286 H   0  0  0  0  0  0  0  0  0  0  0  0
  -17.5568  -36.1945   25.7997 H   0  0  0  0  0  0  0  0  0  0  0  0
  -15.5412  -35.2303   26.4516 H   0  0  0  0  0  0  0  0  0  0  0  0
  -14.2340  -30.8548   25.4133 H   0  0  0  0  0  0  0  0  0  0  0  0
  -13.1909  -28.6119   25.5742 H   0  0  0  0  0  0  0  0  0  0  0  0
  -12.4913  -27.7635   27.8090 H   0  0  0  0  0  0  0  0  0  0  0  0
  -13.8004  -31.2010   29.6802 H   0  0  0  0  0  0  0  0  0  0  0  0
   -9.3398  -37.6255   25.3182 H   0  0  0  0  0  0  0  0  0  0  0  0
   -8.8719  -36.1532   23.3796 H   0  0  0  0  0  0  0  0  0  0  0  0
  -10.4143  -34.2904   22.8200 H   0  0  0  0  0  0  0  0  0  0  0  0
  1  2  1  0
  2  3  2  0
  2  4  1  0
  4  5  1  0
  5  6  1  0
  6  7  2  0
  6  8  1  0
  8  9  2  0
  9 10  1  0
 10 11  2  0
 11 12  1  0
 12 13  2  0
  5 14  1  0
 14 15  2  0
 15 16  1  0
 16 17  2  0
 17 18  1  0
 17 19  1  0
 19 20  2  0
 20 21  1  0
 21 22  2  0
 22 23  1  0
 13  8  1  0
 23 14  1  0
 22 16  1  0
  1 24  1  0
  1 25  1  0
  1 26  1  0
  4 27  1  0
  9 28  1  0
 10 29  1  0
 11 30  1  0
 13 31  1  0
 19 32  1  0
 20 33  1  0
 21 34  1  0
M  END
>  <Energy>  (1351) 
155.12621204755447

>  <compound_id>  (1351) 
6734

>  <target_id>  (1351) 
1

>  <reference_id>  (1351) 
82

>  <inspiration_ids>  (1351) 
[68, 82]

>  <energy_score>  (1351) 
-12.028940093676283

>  <distance_score>  (1351) 
6.11279500939242

>  <path>  (1351) 
/opt/xchem-fragalysis-2/maxwin/BulkDock/SCRATCH/511018/C6734-P82/C6734-P82.minimised.mol

>  <scratch_subdir>  (1351) 
/opt/xchem-fragalysis-2/maxwin/BulkDock/SCRATCH/511018/C6734-P82

>  <fragmenstein_runtime>  (1351) 
5.796853065490723

>  <fragmenstein_outcome>  (1351) 
too moved

>  <fragmenstein_mode>  (1351) 
expansion

>  <fragmenstein_error>  (1351) 


$$$$
C6735-P68
     RDKit          3D

 39 41  0  0  0  0  0  0  0  0999 V2000
  -11.9026  -23.9584   26.2387 C   0  0  0  0  0  0  0  0  0  0  0  0
  -11.6925  -25.4780   26.2653 C   0  0  0  0  0  0  0  0  0  0  0  0
  -13.0892  -26.1285   26.2713 C   0  0  0  0  0  0  0  0  0  0  0  0
  -10.2649  -26.1294   26.7704 C   0  0  0  0  0  0  0  0  0  0  0  0
  -10.3142  -27.4684   25.2965 C   0  0  0  0  0  0  0  0  0  0  0  0
  -11.4471  -27.6227   24.9419 O   0  0  0  0  0  0  0  0  0  0  0  0
   -8.9537  -28.4770   24.5812 N   0  0  0  0  0  0  0  0  0  0  0  0
   -8.9626  -30.0127   23.3192 C   0  0  0  0  0  0  0  0  0  0  0  0
   -9.0431  -31.4470   23.7320 N   0  0  0  0  0  0  0  0  0  0  0  0
   -9.9312  -32.5089   23.3192 C   0  0  0  0  0  0  0  0  0  0  0  0
  -10.0316  -33.7911   23.9219 C   0  0  0  0  0  0  0  0  0  0  0  0
  -10.9106  -34.7386   23.4014 C   0  0  0  0  0  0  0  0  0  0  0  0
  -11.6673  -34.4153   22.2902 C   0  0  0  0  0  0  0  0  0  0  0  0
  -12.5208  -35.3189   21.7963 F   0  0  0  0  0  0  0  0  0  0  0  0
  -11.5743  -33.1690   21.6766 C   0  0  0  0  0  0  0  0  0  0  0  0
  -10.6950  -32.2227   22.2315 C   0  0  0  0  0  0  0  0  0  0  0  0
  -10.4283  -30.6350   21.7064 S   0  0  0  0  0  0  0  0  0  0  0  0
   -9.7845  -24.5056   27.7146 C   0  0  0  0  0  0  0  0  0  0  0  0
  -10.3502  -23.6101   28.8039 C   0  0  0  0  0  0  0  0  0  0  0  0
  -10.4102  -23.6869   30.6949 C   0  0  0  0  0  0  0  0  0  0  0  0
   -9.4620  -24.4426   31.4858 C   0  0  0  0  0  0  0  0  0  0  0  0
   -8.5478  -24.8766   30.5312 N   0  0  0  0  0  0  0  0  0  0  0  0
   -9.0451  -24.6805   28.8494 C   0  0  0  0  0  0  0  0  0  0  0  0
  -11.9969  -23.5131   27.1961 H   0  0  0  0  0  0  0  0  0  0  0  0
  -11.0467  -23.5142   25.7637 H   0  0  0  0  0  0  0  0  0  0  0  0
  -12.7908  -23.6379   25.6782 H   0  0  0  0  0  0  0  0  0  0  0  0
  -11.3873  -25.7007   25.3034 H   0  0  0  0  0  0  0  0  0  0  0  0
  -13.4547  -26.2817   27.2650 H   0  0  0  0  0  0  0  0  0  0  0  0
  -13.2022  -27.0949   25.8014 H   0  0  0  0  0  0  0  0  0  0  0  0
  -13.8029  -25.5121   25.7135 H   0  0  0  0  0  0  0  0  0  0  0  0
  -10.3200  -26.8623   27.5825 H   0  0  0  0  0  0  0  0  0  0  0  0
   -8.1020  -28.2693   25.0716 H   0  0  0  0  0  0  0  0  0  0  0  0
   -9.4167  -34.0274   24.7856 H   0  0  0  0  0  0  0  0  0  0  0  0
  -10.9994  -35.7211   23.8531 H   0  0  0  0  0  0  0  0  0  0  0  0
  -12.1771  -32.9399   20.8036 H   0  0  0  0  0  0  0  0  0  0  0  0
  -10.9283  -22.7119   28.4969 H   0  0  0  0  0  0  0  0  0  0  0  0
  -11.1260  -22.9688   31.1345 H   0  0  0  0  0  0  0  0  0  0  0  0
   -9.3233  -24.5425   32.5235 H   0  0  0  0  0  0  0  0  0  0  0  0
   -8.3158  -23.7676   28.6211 H   0  0  0  0  0  0  0  0  0  0  0  0
  1  2  1  0
  2  3  1  0
  2  4  1  0
  4  5  1  0
  5  6  2  0
  5  7  1  0
  7  8  1  0
  8  9  2  0
  9 10  1  0
 10 11  2  0
 11 12  1  0
 12 13  2  0
 13 14  1  0
 13 15  1  0
 15 16  2  0
 16 17  1  0
  4 18  1  0
 18 19  2  0
 19 20  1  0
 20 21  2  0
 21 22  1  0
 22 23  2  0
 17  8  1  0
 23 18  1  0
 16 10  1  0
  1 24  1  0
  1 25  1  0
  1 26  1  0
  2 27  1  0
  3 28  1  0
  3 29  1  0
  3 30  1  0
  4 31  1  0
  7 32  1  0
 11 33  1  0
 12 34  1  0
 15 35  1  0
 19 36  1  0
 20 37  1  0
 21 38  1  0
 23 39  1  0
M  END
>  <Energy>  (1352) 
821.2221299208793

>  <compound_id>  (1352) 
6735

>  <target_id>  (1352) 
1

>  <reference_id>  (1352) 
68

>  <inspiration_ids>  (1352) 
[68, 82]

>  <energy_score>  (1352) 
713.4324300099137

>  <distance_score>  (1352) 
3.7950063617419865

>  <path>  (1352) 
/opt/xchem-fragalysis-2/maxwin/BulkDock/SCRATCH/511018/C6735-P68/C6735-P68.minimised.mol

>  <scratch_subdir>  (1352) 
/opt/xchem-fragalysis-2/maxwin/BulkDock/SCRATCH/511018/C6735-P68

>  <fragmenstein_runtime>  (1352) 
8.594870567321777

>  <fragmenstein_outcome>  (1352) 
too moved

>  <fragmenstein_mode>  (1352) 
expansion

>  <fragmenstein_error>  (1352) 


$$$$
C6735-P82
     RDKit          3D

 39 41  0  0  0  0  0  0  0  0999 V2000
  -12.0871  -23.8505   25.8435 C   0  0  0  0  0  0  0  0  0  0  0  0
  -12.7269  -24.9987   26.6157 C   0  0  0  0  0  0  0  0  0  0  0  0
  -13.6144  -25.8087   25.6676 C   0  0  0  0  0  0  0  0  0  0  0  0
  -11.6303  -25.7731   27.3968 C   0  0  0  0  0  0  0  0  0  0  0  0
  -11.5929  -27.2452   26.9205 C   0  0  0  0  0  0  0  0  0  0  0  0
  -10.7587  -27.4963   26.0945 O   0  0  0  0  0  0  0  0  0  0  0  0
  -12.5921  -28.0837   27.5336 N   0  0  0  0  0  0  0  0  0  0  0  0
  -12.9432  -29.3868   27.2912 C   0  0  0  0  0  0  0  0  0  0  0  0
  -14.1073  -29.9576   27.4925 N   0  0  0  0  0  0  0  0  0  0  0  0
  -14.1272  -31.2051   26.8384 C   0  0  0  0  0  0  0  0  0  0  0  0
  -15.2318  -32.0650   26.6595 C   0  0  0  0  0  0  0  0  0  0  0  0
  -15.1013  -33.2252   25.8751 C   0  0  0  0  0  0  0  0  0  0  0  0
  -13.8872  -33.5426   25.2850 C   0  0  0  0  0  0  0  0  0  0  0  0
  -13.7870  -34.6216   24.4989 F   0  0  0  0  0  0  0  0  0  0  0  0
  -12.7666  -32.7547   25.4865 C   0  0  0  0  0  0  0  0  0  0  0  0
  -12.9171  -31.5982   26.2736 C   0  0  0  0  0  0  0  0  0  0  0  0
  -11.7443  -30.4401   26.7251 S   0  0  0  0  0  0  0  0  0  0  0  0
  -11.5191  -25.4644   28.8942 C   0  0  0  0  0  0  0  0  0  0  0  0
  -11.9375  -24.2476   29.4504 C   0  0  0  0  0  0  0  0  0  0  0  0
  -11.8162  -23.9838   30.8164 C   0  0  0  0  0  0  0  0  0  0  0  0
  -11.1894  -24.9193   31.6052 C   0  0  0  0  0  0  0  0  0  0  0  0
  -10.6706  -26.0532   31.1066 N   0  0  0  0  0  0  0  0  0  0  0  0
  -10.8395  -26.2849   29.7816 C   0  0  0  0  0  0  0  0  0  0  0  0
  -11.3060  -24.2111   25.1665 H   0  0  0  0  0  0  0  0  0  0  0  0
  -11.6445  -23.1324   26.5390 H   0  0  0  0  0  0  0  0  0  0  0  0
  -12.8261  -23.3160   25.2399 H   0  0  0  0  0  0  0  0  0  0  0  0
  -13.4112  -24.5559   27.3245 H   0  0  0  0  0  0  0  0  0  0  0  0
  -14.2497  -26.5073   26.2201 H   0  0  0  0  0  0  0  0  0  0  0  0
  -13.0332  -26.3773   24.9370 H   0  0  0  0  0  0  0  0  0  0  0  0
  -14.2911  -25.1506   25.1104 H   0  0  0  0  0  0  0  0  0  0  0  0
  -10.6604  -25.3816   27.0487 H   0  0  0  0  0  0  0  0  0  0  0  0
  -13.1774  -27.5175   28.1249 H   0  0  0  0  0  0  0  0  0  0  0  0
  -16.1919  -31.8034   27.0950 H   0  0  0  0  0  0  0  0  0  0  0  0
  -15.9589  -33.8722   25.7112 H   0  0  0  0  0  0  0  0  0  0  0  0
  -11.8129  -33.0293   25.0475 H   0  0  0  0  0  0  0  0  0  0  0  0
  -12.3711  -23.4634   28.8375 H   0  0  0  0  0  0  0  0  0  0  0  0
  -12.2005  -23.0640   31.2406 H   0  0  0  0  0  0  0  0  0  0  0  0
  -11.0740  -24.7764   32.6742 H   0  0  0  0  0  0  0  0  0  0  0  0
  -10.3621  -27.1926   29.4592 H   0  0  0  0  0  0  0  0  0  0  0  0
  1  2  1  0
  2  3  1  0
  2  4  1  0
  4  5  1  0
  5  6  2  0
  5  7  1  0
  7  8  1  0
  8  9  2  0
  9 10  1  0
 10 11  2  0
 11 12  1  0
 12 13  2  0
 13 14  1  0
 13 15  1  0
 15 16  2  0
 16 17  1  0
  4 18  1  0
 18 19  2  0
 19 20  1  0
 20 21  2  0
 21 22  1  0
 22 23  2  0
 17  8  1  0
 23 18  1  0
 16 10  1  0
  1 24  1  0
  1 25  1  0
  1 26  1  0
  2 27  1  0
  3 28  1  0
  3 29  1  0
  3 30  1  0
  4 31  1  0
  7 32  1  0
 11 33  1  0
 12 34  1  0
 15 35  1  0
 19 36  1  0
 20 37  1  0
 21 38  1  0
 23 39  1  0
M  END
>  <Energy>  (1353) 
34.511752327171884

>  <compound_id>  (1353) 
6735

>  <target_id>  (1353) 
1

>  <reference_id>  (1353) 
82

>  <inspiration_ids>  (1353) 
[68, 82]

>  <energy_score>  (1353) 
-73.27794758379193

>  <distance_score>  (1353) 
5.428658788239169

>  <path>  (1353) 
/opt/xchem-fragalysis-2/maxwin/BulkDock/SCRATCH/511018/C6735-P82/C6735-P82.minimised.mol

>  <scratch_subdir>  (1353) 
/opt/xchem-fragalysis-2/maxwin/BulkDock/SCRATCH/511018/C6735-P82

>  <fragmenstein_runtime>  (1353) 
6.56933331489563

>  <fragmenstein_outcome>  (1353) 
too moved

>  <fragmenstein_mode>  (1353) 
expansion

>  <fragmenstein_error>  (1353) 


$$$$
C6736-P68
     RDKit          3D

 43 45  0  0  0  0  0  0  0  0999 V2000
  -11.4380  -35.7224   21.1908 C   0  0  0  0  0  0  0  0  0  0  0  0
  -11.2697  -36.8655   22.0303 O   0  0  0  0  0  0  0  0  0  0  0  0
  -10.6001  -36.6685   23.2075 C   0  0  0  0  0  0  0  0  0  0  0  0
  -10.6444  -37.7211   24.1273 C   0  0  0  0  0  0  0  0  0  0  0  0
  -10.0689  -37.6076   25.4082 C   0  0  0  0  0  0  0  0  0  0  0  0
   -9.4748  -36.3889   25.7755 C   0  0  0  0  0  0  0  0  0  0  0  0
   -8.9990  -35.9992   27.0293 N   0  0  0  0  0  0  0  0  0  0  0  0
   -8.7109  -34.6868   27.1198 C   0  0  0  0  0  0  0  0  0  0  0  0
   -8.9439  -34.2301   28.4428 N   0  0  0  0  0  0  0  0  0  0  0  0
   -9.5908  -32.7510   29.0438 C   0  0  0  0  0  0  0  0  0  0  0  0
   -9.8417  -31.8387   28.3388 O   0  0  0  0  0  0  0  0  0  0  0  0
  -10.1306  -32.6150   31.0501 C   0  0  0  0  0  0  0  0  0  0  0  0
  -11.0867  -31.5254   32.0917 C   0  0  0  0  0  0  0  0  0  0  0  0
  -12.5085  -31.1825   32.1221 C   0  0  0  0  0  0  0  0  0  0  0  0
  -13.1025  -30.1208   32.8027 C   0  0  0  0  0  0  0  0  0  0  0  0
  -12.3237  -29.5182   33.7054 C   0  0  0  0  0  0  0  0  0  0  0  0
  -11.1006  -30.0143   33.9610 N   0  0  0  0  0  0  0  0  0  0  0  0
  -10.4745  -30.8341   33.0847 C   0  0  0  0  0  0  0  0  0  0  0  0
  -11.1763  -33.9494   31.9241 C   0  0  0  0  0  0  0  0  0  0  0  0
  -11.8506  -33.6367   33.2763 C   0  0  0  0  0  0  0  0  0  0  0  0
  -12.4532  -34.7821   31.4151 C   0  0  0  0  0  0  0  0  0  0  0  0
   -8.5993  -34.1056   25.5208 S   0  0  0  0  0  0  0  0  0  0  0  0
   -9.3930  -35.4019   24.8203 C   0  0  0  0  0  0  0  0  0  0  0  0
   -9.9090  -35.5075   23.5248 C   0  0  0  0  0  0  0  0  0  0  0  0
  -11.9359  -34.9052   21.7235 H   0  0  0  0  0  0  0  0  0  0  0  0
  -12.0821  -36.0168   20.3567 H   0  0  0  0  0  0  0  0  0  0  0  0
  -10.4789  -35.4016   20.7716 H   0  0  0  0  0  0  0  0  0  0  0  0
  -11.1547  -38.6437   23.8573 H   0  0  0  0  0  0  0  0  0  0  0  0
  -10.1284  -38.4225   26.1227 H   0  0  0  0  0  0  0  0  0  0  0  0
   -8.7307  -34.8279   29.2223 H   0  0  0  0  0  0  0  0  0  0  0  0
   -9.1813  -32.7100   31.5730 H   0  0  0  0  0  0  0  0  0  0  0  0
  -13.3104  -31.7558   31.6831 H   0  0  0  0  0  0  0  0  0  0  0  0
  -14.1424  -29.8555   32.6873 H   0  0  0  0  0  0  0  0  0  0  0  0
  -12.6605  -28.7008   34.3313 H   0  0  0  0  0  0  0  0  0  0  0  0
   -9.4190  -30.8035   33.2082 H   0  0  0  0  0  0  0  0  0  0  0  0
  -10.3603  -34.6242   32.2061 H   0  0  0  0  0  0  0  0  0  0  0  0
  -12.0500  -34.5608   33.8333 H   0  0  0  0  0  0  0  0  0  0  0  0
  -12.8541  -33.2048   33.2247 H   0  0  0  0  0  0  0  0  0  0  0  0
  -11.2101  -32.9899   33.8441 H   0  0  0  0  0  0  0  0  0  0  0  0
  -12.8199  -35.4417   32.2195 H   0  0  0  0  0  0  0  0  0  0  0  0
  -13.3575  -34.2055   31.2147 H   0  0  0  0  0  0  0  0  0  0  0  0
  -12.3214  -35.5182   30.6421 H   0  0  0  0  0  0  0  0  0  0  0  0
   -9.8081  -34.6747   22.8406 H   0  0  0  0  0  0  0  0  0  0  0  0
  1  2  1  0
  2  3  1  0
  3  4  2  0
  4  5  1  0
  5  6  2  0
  6  7  1  0
  7  8  2  0
  8  9  1  0
  9 10  1  0
 10 11  2  0
 10 12  1  0
 12 13  1  0
 13 14  2  0
 14 15  1  0
 15 16  2  0
 16 17  1  0
 17 18  2  0
 12 19  1  0
 19 20  1  0
 19 21  1  0
  8 22  1  0
 22 23  1  0
 23 24  2  0
 24  3  1  0
 23  6  1  0
 18 13  1  0
  1 25  1  0
  1 26  1  0
  1 27  1  0
  4 28  1  0
  5 29  1  0
  9 30  1  0
 12 31  1  0
 14 32  1  0
 15 33  1  0
 16 34  1  0
 18 35  1  0
 19 36  1  0
 20 37  1  0
 20 38  1  0
 20 39  1  0
 21 40  1  0
 21 41  1  0
 21 42  1  0
 24 43  1  0
M  END
>  <Energy>  (1354) 
326.91104702870433

>  <compound_id>  (1354) 
6736

>  <target_id>  (1354) 
1

>  <reference_id>  (1354) 
68

>  <inspiration_ids>  (1354) 
[68, 82]

>  <energy_score>  (1354) 
209.21561843656275

>  <distance_score>  (1354) 
4.975608654804503

>  <path>  (1354) 
/opt/xchem-fragalysis-2/maxwin/BulkDock/SCRATCH/511018/C6736-P68/C6736-P68.minimised.mol

>  <scratch_subdir>  (1354) 
/opt/xchem-fragalysis-2/maxwin/BulkDock/SCRATCH/511018/C6736-P68

>  <fragmenstein_runtime>  (1354) 
14.294171810150146

>  <fragmenstein_outcome>  (1354) 
too moved

>  <fragmenstein_mode>  (1354) 
expansion

>  <fragmenstein_error>  (1354) 


$$$$
C6736-P82
     RDKit          3D

 43 45  0  0  0  0  0  0  0  0999 V2000
  -11.8319  -34.9961   22.7280 C   0  0  0  0  0  0  0  0  0  0  0  0
  -13.0714  -35.0506   23.4338 O   0  0  0  0  0  0  0  0  0  0  0  0
  -13.2773  -34.0458   24.3380 C   0  0  0  0  0  0  0  0  0  0  0  0
  -14.6070  -33.7123   24.5861 C   0  0  0  0  0  0  0  0  0  0  0  0
  -14.9473  -32.6172   25.4006 C   0  0  0  0  0  0  0  0  0  0  0  0
  -13.9301  -31.8253   25.9648 C   0  0  0  0  0  0  0  0  0  0  0  0
  -14.0726  -30.5974   26.6332 N   0  0  0  0  0  0  0  0  0  0  0  0
  -12.8851  -30.0928   26.8315 C   0  0  0  0  0  0  0  0  0  0  0  0
  -12.4211  -28.8317   26.9893 N   0  0  0  0  0  0  0  0  0  0  0  0
  -13.1107  -27.5955   27.2085 C   0  0  0  0  0  0  0  0  0  0  0  0
  -14.2751  -27.3684   27.3896 O   0  0  0  0  0  0  0  0  0  0  0  0
  -12.0819  -26.3929   27.0669 C   0  0  0  0  0  0  0  0  0  0  0  0
  -12.6112  -25.4348   26.0055 C   0  0  0  0  0  0  0  0  0  0  0  0
  -12.0930  -24.1608   25.8232 C   0  0  0  0  0  0  0  0  0  0  0  0
  -12.5936  -23.3437   24.8176 C   0  0  0  0  0  0  0  0  0  0  0  0
  -13.6012  -23.8163   24.0088 C   0  0  0  0  0  0  0  0  0  0  0  0
  -14.0928  -25.0589   24.1034 N   0  0  0  0  0  0  0  0  0  0  0  0
  -13.5872  -25.8295   25.0854 C   0  0  0  0  0  0  0  0  0  0  0  0
  -11.4378  -25.7357   28.3415 C   0  0  0  0  0  0  0  0  0  0  0  0
  -12.1702  -24.5801   29.0081 C   0  0  0  0  0  0  0  0  0  0  0  0
  -11.0423  -26.6969   29.4556 C   0  0  0  0  0  0  0  0  0  0  0  0
  -11.5872  -31.1450   26.5994 S   0  0  0  0  0  0  0  0  0  0  0  0
  -12.6172  -32.2492   25.7754 C   0  0  0  0  0  0  0  0  0  0  0  0
  -12.2587  -33.3638   24.9932 C   0  0  0  0  0  0  0  0  0  0  0  0
  -11.0080  -35.3286   23.3672 H   0  0  0  0  0  0  0  0  0  0  0  0
  -11.6391  -33.9974   22.3220 H   0  0  0  0  0  0  0  0  0  0  0  0
  -11.8996  -35.6911   21.8854 H   0  0  0  0  0  0  0  0  0  0  0  0
  -15.4006  -34.2805   24.1044 H   0  0  0  0  0  0  0  0  0  0  0  0
  -15.9871  -32.3351   25.5369 H   0  0  0  0  0  0  0  0  0  0  0  0
  -11.4536  -28.6376   26.7929 H   0  0  0  0  0  0  0  0  0  0  0  0
  -11.2075  -26.8143   26.5461 H   0  0  0  0  0  0  0  0  0  0  0  0
  -11.3099  -23.7720   26.4637 H   0  0  0  0  0  0  0  0  0  0  0  0
  -12.2361  -22.3294   24.6800 H   0  0  0  0  0  0  0  0  0  0  0  0
  -14.0413  -23.1889   23.2397 H   0  0  0  0  0  0  0  0  0  0  0  0
  -14.0276  -26.8225   25.0757 H   0  0  0  0  0  0  0  0  0  0  0  0
  -10.4952  -25.2885   27.9897 H   0  0  0  0  0  0  0  0  0  0  0  0
  -11.5020  -24.0625   29.7083 H   0  0  0  0  0  0  0  0  0  0  0  0
  -13.0048  -24.9487   29.5956 H   0  0  0  0  0  0  0  0  0  0  0  0
  -12.5152  -23.8196   28.3116 H   0  0  0  0  0  0  0  0  0  0  0  0
  -11.6429  -27.6051   29.4533 H   0  0  0  0  0  0  0  0  0  0  0  0
  -11.1355  -26.2464   30.4505 H   0  0  0  0  0  0  0  0  0  0  0  0
   -9.9850  -26.9398   29.3633 H   0  0  0  0  0  0  0  0  0  0  0  0
  -11.2140  -33.6243   24.8717 H   0  0  0  0  0  0  0  0  0  0  0  0
  1  2  1  0
  2  3  1  0
  3  4  2  0
  4  5  1  0
  5  6  2  0
  6  7  1  0
  7  8  2  0
  8  9  1  0
  9 10  1  0
 10 11  2  0
 10 12  1  0
 12 13  1  0
 13 14  2  0
 14 15  1  0
 15 16  2  0
 16 17  1  0
 17 18  2  0
 12 19  1  0
 19 20  1  0
 19 21  1  0
  8 22  1  0
 22 23  1  0
 23 24  2  0
 24  3  1  0
 23  6  1  0
 18 13  1  0
  1 25  1  0
  1 26  1  0
  1 27  1  0
  4 28  1  0
  5 29  1  0
  9 30  1  0
 12 31  1  0
 14 32  1  0
 15 33  1  0
 16 34  1  0
 18 35  1  0
 19 36  1  0
 20 37  1  0
 20 38  1  0
 20 39  1  0
 21 40  1  0
 21 41  1  0
 21 42  1  0
 24 43  1  0
M  END
>  <Energy>  (1355) 
56.707191554860714

>  <compound_id>  (1355) 
6736

>  <target_id>  (1355) 
1

>  <reference_id>  (1355) 
82

>  <inspiration_ids>  (1355) 
[68, 82]

>  <energy_score>  (1355) 
-60.98823703727953

>  <distance_score>  (1355) 
6.751148053379242

>  <path>  (1355) 
/opt/xchem-fragalysis-2/maxwin/BulkDock/SCRATCH/511018/C6736-P82/C6736-P82.minimised.mol

>  <scratch_subdir>  (1355) 
/opt/xchem-fragalysis-2/maxwin/BulkDock/SCRATCH/511018/C6736-P82

>  <fragmenstein_runtime>  (1355) 
7.723475933074951

>  <fragmenstein_outcome>  (1355) 
too moved

>  <fragmenstein_mode>  (1355) 
expansion

>  <fragmenstein_error>  (1355) 


$$$$
C6737-P68
     RDKit          3D

 42 44  0  0  0  0  0  0  0  0999 V2000
  -11.4779  -38.6628   26.8627 C   0  0  0  0  0  0  0  0  0  0  0  0
  -11.1394  -37.6910   25.7693 C   0  0  0  0  0  0  0  0  0  0  0  0
  -11.7831  -37.8435   24.5209 C   0  0  0  0  0  0  0  0  0  0  0  0
  -11.5055  -37.0059   23.4465 C   0  0  0  0  0  0  0  0  0  0  0  0
  -10.5660  -35.9914   23.5785 C   0  0  0  0  0  0  0  0  0  0  0  0
   -9.9678  -35.8214   24.8352 C   0  0  0  0  0  0  0  0  0  0  0  0
   -8.7155  -34.7678   25.2661 S   0  0  0  0  0  0  0  0  0  0  0  0
   -9.1778  -34.9550   27.3106 C   0  0  0  0  0  0  0  0  0  0  0  0
   -9.5220  -33.6432   27.1460 N   0  0  0  0  0  0  0  0  0  0  0  0
   -9.5657  -32.2321   28.3175 C   0  0  0  0  0  0  0  0  0  0  0  0
   -9.3493  -32.3992   29.4869 O   0  0  0  0  0  0  0  0  0  0  0  0
   -9.7901  -30.1568   27.8527 C   0  0  0  0  0  0  0  0  0  0  0  0
   -8.6445  -29.4324   29.3651 C   0  0  0  0  0  0  0  0  0  0  0  0
   -9.2222  -28.5879   30.2925 C   0  0  0  0  0  0  0  0  0  0  0  0
   -9.3077  -27.3559   30.1014 C   0  0  0  0  0  0  0  0  0  0  0  0
   -9.8521  -27.6173   28.9313 C   0  0  0  0  0  0  0  0  0  0  0  0
   -8.8884  -28.3365   28.1567 N   0  0  0  0  0  0  0  0  0  0  0  0
   -7.8304  -28.6597   28.8168 C   0  0  0  0  0  0  0  0  0  0  0  0
  -10.6153  -28.4737   26.9306 C   0  0  0  0  0  0  0  0  0  0  0  0
  -11.7801  -27.8746   25.9836 C   0  0  0  0  0  0  0  0  0  0  0  0
  -10.3003  -26.6459   26.7366 C   0  0  0  0  0  0  0  0  0  0  0  0
   -9.5332  -36.2286   27.0813 N   0  0  0  0  0  0  0  0  0  0  0  0
  -10.2480  -36.5995   25.9305 C   0  0  0  0  0  0  0  0  0  0  0  0
  -11.6904  -39.6558   26.4526 H   0  0  0  0  0  0  0  0  0  0  0  0
  -10.6446  -38.7766   27.5556 H   0  0  0  0  0  0  0  0  0  0  0  0
  -12.3564  -38.3135   27.4134 H   0  0  0  0  0  0  0  0  0  0  0  0
  -12.4983  -38.6536   24.3809 H   0  0  0  0  0  0  0  0  0  0  0  0
  -11.9974  -37.1690   22.4902 H   0  0  0  0  0  0  0  0  0  0  0  0
  -10.2939  -35.3662   22.7339 H   0  0  0  0  0  0  0  0  0  0  0  0
   -9.8093  -33.3180   26.2365 H   0  0  0  0  0  0  0  0  0  0  0  0
   -9.0929  -29.9294   27.1306 H   0  0  0  0  0  0  0  0  0  0  0  0
  -10.1525  -28.7296   30.9546 H   0  0  0  0  0  0  0  0  0  0  0  0
   -8.4887  -26.6832   30.3478 H   0  0  0  0  0  0  0  0  0  0  0  0
  -10.8956  -27.8130   28.7460 H   0  0  0  0  0  0  0  0  0  0  0  0
   -6.7937  -28.5565   28.6163 H   0  0  0  0  0  0  0  0  0  0  0  0
   -9.8814  -28.5628   26.1551 H   0  0  0  0  0  0  0  0  0  0  0  0
  -12.4632  -28.5629   25.6355 H   0  0  0  0  0  0  0  0  0  0  0  0
  -12.4540  -27.0918   26.3779 H   0  0  0  0  0  0  0  0  0  0  0  0
  -11.3225  -27.4908   25.0767 H   0  0  0  0  0  0  0  0  0  0  0  0
   -9.7788  -26.4861   25.8010 H   0  0  0  0  0  0  0  0  0  0  0  0
  -11.1392  -25.9777   26.4713 H   0  0  0  0  0  0  0  0  0  0  0  0
   -9.9026  -26.0291   27.5282 H   0  0  0  0  0  0  0  0  0  0  0  0
  1  2  1  0
  2  3  2  0
  3  4  1  0
  4  5  2  0
  5  6  1  0
  6  7  1  0
  7  8  1  0
  8  9  1  0
  9 10  1  0
 10 11  2  0
 10 12  1  0
 12 13  1  0
 13 14  2  0
 14 15  1  0
 15 16  2  0
 16 17  1  0
 17 18  2  0
 12 19  1  0
 19 20  1  0
 19 21  1  0
  8 22  2  0
 22 23  1  0
 23  2  1  0
 23  6  2  0
 18 13  1  0
  1 24  1  0
  1 25  1  0
  1 26  1  0
  3 27  1  0
  4 28  1  0
  5 29  1  0
  9 30  1  0
 12 31  1  0
 14 32  1  0
 15 33  1  0
 16 34  1  0
 18 35  1  0
 19 36  1  0
 20 37  1  0
 20 38  1  0
 20 39  1  0
 21 40  1  0
 21 41  1  0
 21 42  1  0
M  END
>  <Energy>  (1356) 
952.18975961883575

>  <compound_id>  (1356) 
6737

>  <target_id>  (1356) 
1

>  <reference_id>  (1356) 
68

>  <inspiration_ids>  (1356) 
[68, 82]

>  <energy_score>  (1356) 
829.1611108665624

>  <distance_score>  (1356) 
4.362486547005114

>  <path>  (1356) 
/opt/xchem-fragalysis-2/maxwin/BulkDock/SCRATCH/511018/C6737-P68/C6737-P68.minimised.mol

>  <scratch_subdir>  (1356) 
/opt/xchem-fragalysis-2/maxwin/BulkDock/SCRATCH/511018/C6737-P68

>  <fragmenstein_runtime>  (1356) 
14.362394094467163

>  <fragmenstein_outcome>  (1356) 
too moved

>  <fragmenstein_mode>  (1356) 
expansion

>  <fragmenstein_error>  (1356) 


$$$$
C6737-P82
     RDKit          3D

 42 44  0  0  0  0  0  0  0  0999 V2000
  -13.0522  -36.0079   25.6519 C   0  0  0  0  0  0  0  0  0  0  0  0
  -11.8383  -35.6263   24.8516 C   0  0  0  0  0  0  0  0  0  0  0  0
  -11.2713  -36.5754   23.9816 C   0  0  0  0  0  0  0  0  0  0  0  0
  -10.1662  -36.2769   23.1923 C   0  0  0  0  0  0  0  0  0  0  0  0
   -9.5556  -35.0342   23.2752 C   0  0  0  0  0  0  0  0  0  0  0  0
  -10.1079  -34.1042   24.1659 C   0  0  0  0  0  0  0  0  0  0  0  0
   -9.5330  -32.5474   24.5305 S   0  0  0  0  0  0  0  0  0  0  0  0
  -10.8982  -32.2394   25.7640 C   0  0  0  0  0  0  0  0  0  0  0  0
  -11.0304  -30.8635   26.2000 N   0  0  0  0  0  0  0  0  0  0  0  0
  -12.1886  -30.1486   27.0511 C   0  0  0  0  0  0  0  0  0  0  0  0
  -13.1450  -30.6056   27.5752 O   0  0  0  0  0  0  0  0  0  0  0  0
  -11.9651  -28.4854   27.0373 C   0  0  0  0  0  0  0  0  0  0  0  0
  -11.7766  -27.3533   28.1313 C   0  0  0  0  0  0  0  0  0  0  0  0
  -11.4832  -26.0228   27.7476 C   0  0  0  0  0  0  0  0  0  0  0  0
  -11.1652  -25.0010   28.6570 C   0  0  0  0  0  0  0  0  0  0  0  0
  -11.0403  -25.3308   29.9791 C   0  0  0  0  0  0  0  0  0  0  0  0
  -11.2454  -26.5767   30.4038 N   0  0  0  0  0  0  0  0  0  0  0  0
  -11.6665  -27.5035   29.4953 C   0  0  0  0  0  0  0  0  0  0  0  0
  -13.1880  -28.1516   26.0486 C   0  0  0  0  0  0  0  0  0  0  0  0
  -14.5546  -28.0158   26.7082 C   0  0  0  0  0  0  0  0  0  0  0  0
  -12.9861  -26.9877   25.0918 C   0  0  0  0  0  0  0  0  0  0  0  0
  -11.7470  -33.2397   25.6576 N   0  0  0  0  0  0  0  0  0  0  0  0
  -11.2486  -34.3440   24.9179 C   0  0  0  0  0  0  0  0  0  0  0  0
  -12.8213  -36.8589   26.3007 H   0  0  0  0  0  0  0  0  0  0  0  0
  -13.3943  -35.1845   26.2859 H   0  0  0  0  0  0  0  0  0  0  0  0
  -13.8734  -36.2812   24.9816 H   0  0  0  0  0  0  0  0  0  0  0  0
  -11.7156  -37.5674   23.9086 H   0  0  0  0  0  0  0  0  0  0  0  0
   -9.7609  -37.0311   22.5208 H   0  0  0  0  0  0  0  0  0  0  0  0
   -8.6702  -34.7989   22.6904 H   0  0  0  0  0  0  0  0  0  0  0  0
  -10.3002  -30.1745   25.9603 H   0  0  0  0  0  0  0  0  0  0  0  0
  -11.0950  -28.3531   26.3795 H   0  0  0  0  0  0  0  0  0  0  0  0
  -11.4337  -25.7441   26.7000 H   0  0  0  0  0  0  0  0  0  0  0  0
  -10.9785  -23.9885   28.3160 H   0  0  0  0  0  0  0  0  0  0  0  0
  -10.7728  -24.6051   30.7377 H   0  0  0  0  0  0  0  0  0  0  0  0
  -11.9697  -28.4272   29.9627 H   0  0  0  0  0  0  0  0  0  0  0  0
  -13.2859  -29.0155   25.3793 H   0  0  0  0  0  0  0  0  0  0  0  0
  -14.6823  -28.6761   27.5676 H   0  0  0  0  0  0  0  0  0  0  0  0
  -14.7197  -26.9842   27.0103 H   0  0  0  0  0  0  0  0  0  0  0  0
  -15.3464  -28.2579   25.9895 H   0  0  0  0  0  0  0  0  0  0  0  0
  -13.1520  -26.0147   25.5605 H   0  0  0  0  0  0  0  0  0  0  0  0
  -11.9892  -27.0181   24.6521 H   0  0  0  0  0  0  0  0  0  0  0  0
  -13.7226  -27.0572   24.2858 H   0  0  0  0  0  0  0  0  0  0  0  0
  1  2  1  0
  2  3  2  0
  3  4  1  0
  4  5  2  0
  5  6  1  0
  6  7  1  0
  7  8  1  0
  8  9  1  0
  9 10  1  0
 10 11  2  0
 10 12  1  0
 12 13  1  0
 13 14  2  0
 14 15  1  0
 15 16  2  0
 16 17  1  0
 17 18  2  0
 12 19  1  0
 19 20  1  0
 19 21  1  0
  8 22  2  0
 22 23  1  0
 23  2  1  0
 23  6  2  0
 18 13  1  0
  1 24  1  0
  1 25  1  0
  1 26  1  0
  3 27  1  0
  4 28  1  0
  5 29  1  0
  9 30  1  0
 12 31  1  0
 14 32  1  0
 15 33  1  0
 16 34  1  0
 18 35  1  0
 19 36  1  0
 20 37  1  0
 20 38  1  0
 20 39  1  0
 21 40  1  0
 21 41  1  0
 21 42  1  0
M  END
>  <Energy>  (1357) 
101.96647471009742

>  <compound_id>  (1357) 
6737

>  <target_id>  (1357) 
1

>  <reference_id>  (1357) 
82

>  <inspiration_ids>  (1357) 
[68, 82]

>  <energy_score>  (1357) 
-18.5116089539697

>  <distance_score>  (1357) 
4.113948723837455

>  <path>  (1357) 
/opt/xchem-fragalysis-2/maxwin/BulkDock/SCRATCH/511018/C6737-P82/C6737-P82.minimised.mol

>  <scratch_subdir>  (1357) 
/opt/xchem-fragalysis-2/maxwin/BulkDock/SCRATCH/511018/C6737-P82

>  <fragmenstein_runtime>  (1357) 
4.7957763671875

>  <fragmenstein_outcome>  (1357) 
too moved

>  <fragmenstein_mode>  (1357) 
expansion

>  <fragmenstein_error>  (1357) 


$$$$
C6738-P68
     RDKit          3D

 42 44  0  0  0  0  0  0  0  0999 V2000
  -11.3658  -37.1910   22.9909 C   0  0  0  0  0  0  0  0  0  0  0  0
  -10.6912  -36.6509   24.2143 C   0  0  0  0  0  0  0  0  0  0  0  0
  -10.4905  -37.4375   25.3466 C   0  0  0  0  0  0  0  0  0  0  0  0
   -9.8602  -36.9192   26.4995 C   0  0  0  0  0  0  0  0  0  0  0  0
   -9.4655  -35.5609   26.5689 C   0  0  0  0  0  0  0  0  0  0  0  0
   -9.1061  -34.6768   27.7409 N   0  0  0  0  0  0  0  0  0  0  0  0
   -9.1573  -33.3276   27.5126 C   0  0  0  0  0  0  0  0  0  0  0  0
   -9.9621  -31.8975   28.4907 N   0  0  0  0  0  0  0  0  0  0  0  0
  -10.2819  -29.8779   28.1344 C   0  0  0  0  0  0  0  0  0  0  0  0
   -9.9204  -29.1774   27.2143 O   0  0  0  0  0  0  0  0  0  0  0  0
  -11.7239  -28.8458   29.7020 C   0  0  0  0  0  0  0  0  0  0  0  0
  -11.0925  -28.6380   31.5708 C   0  0  0  0  0  0  0  0  0  0  0  0
  -11.6876  -27.6554   32.4769 C   0  0  0  0  0  0  0  0  0  0  0  0
  -12.3085  -27.9368   33.7448 C   0  0  0  0  0  0  0  0  0  0  0  0
  -12.0781  -29.1088   34.3510 C   0  0  0  0  0  0  0  0  0  0  0  0
  -11.2512  -30.0598   33.8466 N   0  0  0  0  0  0  0  0  0  0  0  0
  -10.8098  -29.8691   32.5501 C   0  0  0  0  0  0  0  0  0  0  0  0
  -12.7888  -29.6602   31.2990 C   0  0  0  0  0  0  0  0  0  0  0  0
  -14.3308  -29.6771   31.6456 C   0  0  0  0  0  0  0  0  0  0  0  0
  -12.7433  -31.2475   31.9996 C   0  0  0  0  0  0  0  0  0  0  0  0
   -8.3562  -33.7588   25.5633 S   0  0  0  0  0  0  0  0  0  0  0  0
   -9.5262  -34.9234   25.3585 C   0  0  0  0  0  0  0  0  0  0  0  0
  -10.1349  -35.3789   24.1856 C   0  0  0  0  0  0  0  0  0  0  0  0
  -10.6273  -37.6475   22.3247 H   0  0  0  0  0  0  0  0  0  0  0  0
  -12.1120  -37.9458   23.2603 H   0  0  0  0  0  0  0  0  0  0  0  0
  -11.8893  -36.3957   22.4498 H   0  0  0  0  0  0  0  0  0  0  0  0
  -10.8256  -38.4738   25.3593 H   0  0  0  0  0  0  0  0  0  0  0  0
   -9.7501  -37.5884   27.3330 H   0  0  0  0  0  0  0  0  0  0  0  0
  -10.3172  -32.2052   29.4015 H   0  0  0  0  0  0  0  0  0  0  0  0
  -12.0803  -27.8801   29.4044 H   0  0  0  0  0  0  0  0  0  0  0  0
  -12.0602  -26.7104   32.2454 H   0  0  0  0  0  0  0  0  0  0  0  0
  -13.0616  -27.2984   34.1823 H   0  0  0  0  0  0  0  0  0  0  0  0
  -12.5923  -29.2389   35.2794 H   0  0  0  0  0  0  0  0  0  0  0  0
  -10.1790  -30.7334   32.2968 H   0  0  0  0  0  0  0  0  0  0  0  0
  -12.8902  -29.0460   32.1248 H   0  0  0  0  0  0  0  0  0  0  0  0
  -14.8796  -28.7501   31.6056 H   0  0  0  0  0  0  0  0  0  0  0  0
  -14.8001  -30.4909   31.0855 H   0  0  0  0  0  0  0  0  0  0  0  0
  -14.4810  -29.9335   32.7133 H   0  0  0  0  0  0  0  0  0  0  0  0
  -13.6193  -31.8609   31.7449 H   0  0  0  0  0  0  0  0  0  0  0  0
  -11.8191  -31.8245   31.9147 H   0  0  0  0  0  0  0  0  0  0  0  0
  -12.9430  -31.2015   33.0782 H   0  0  0  0  0  0  0  0  0  0  0  0
  -10.1034  -34.7893   23.2747 H   0  0  0  0  0  0  0  0  0  0  0  0
  1  2  1  0
  2  3  2  0
  3  4  1  0
  4  5  2  0
  5  6  1  0
  6  7  2  0
  7  8  1  0
  8  9  1  0
  9 10  2  0
  9 11  1  0
 11 12  1  0
 12 13  2  0
 13 14  1  0
 14 15  2  0
 15 16  1  0
 16 17  2  0
 11 18  1  0
 18 19  1  0
 18 20  1  0
  7 21  1  0
 21 22  1  0
 22 23  2  0
 23  2  1  0
 22  5  1  0
 17 12  1  0
  1 24  1  0
  1 25  1  0
  1 26  1  0
  3 27  1  0
  4 28  1  0
  8 29  1  0
 11 30  1  0
 13 31  1  0
 14 32  1  0
 15 33  1  0
 17 34  1  0
 18 35  1  0
 19 36  1  0
 19 37  1  0
 19 38  1  0
 20 39  1  0
 20 40  1  0
 20 41  1  0
 23 42  1  0
M  END
>  <Energy>  (1358) 
1039.778463324167

>  <compound_id>  (1358) 
6738

>  <target_id>  (1358) 
1

>  <reference_id>  (1358) 
68

>  <inspiration_ids>  (1358) 
[68, 82]

>  <energy_score>  (1358) 
950.1610672867104

>  <distance_score>  (1358) 
4.261095374790449

>  <path>  (1358) 
/opt/xchem-fragalysis-2/maxwin/BulkDock/SCRATCH/511018/C6738-P68/C6738-P68.minimised.mol

>  <scratch_subdir>  (1358) 
/opt/xchem-fragalysis-2/maxwin/BulkDock/SCRATCH/511018/C6738-P68

>  <fragmenstein_runtime>  (1358) 
12.224315643310547

>  <fragmenstein_outcome>  (1358) 
too moved

>  <fragmenstein_mode>  (1358) 
expansion

>  <fragmenstein_error>  (1358) 


$$$$
C6738-P82
     RDKit          3D

 42 44  0  0  0  0  0  0  0  0999 V2000
  -10.4299  -36.2661   20.6140 C   0  0  0  0  0  0  0  0  0  0  0  0
  -10.6380  -35.8933   22.0362 C   0  0  0  0  0  0  0  0  0  0  0  0
  -11.6522  -36.4963   22.7840 C   0  0  0  0  0  0  0  0  0  0  0  0
  -12.0908  -35.9324   23.9760 C   0  0  0  0  0  0  0  0  0  0  0  0
  -11.5461  -34.7018   24.3485 C   0  0  0  0  0  0  0  0  0  0  0  0
  -12.1048  -33.8193   25.2642 N   0  0  0  0  0  0  0  0  0  0  0  0
  -11.3973  -32.7161   25.3536 C   0  0  0  0  0  0  0  0  0  0  0  0
  -11.6381  -31.6452   26.2537 N   0  0  0  0  0  0  0  0  0  0  0  0
  -12.9215  -30.7152   26.4342 C   0  0  0  0  0  0  0  0  0  0  0  0
  -13.9200  -30.6628   25.8074 O   0  0  0  0  0  0  0  0  0  0  0  0
  -12.8096  -29.8002   27.7670 C   0  0  0  0  0  0  0  0  0  0  0  0
  -12.3908  -28.2665   27.9108 C   0  0  0  0  0  0  0  0  0  0  0  0
  -12.5479  -27.2781   26.9516 C   0  0  0  0  0  0  0  0  0  0  0  0
  -12.1919  -25.9354   27.2266 C   0  0  0  0  0  0  0  0  0  0  0  0
  -11.6593  -25.5862   28.4587 C   0  0  0  0  0  0  0  0  0  0  0  0
  -11.4828  -26.4787   29.4315 N   0  0  0  0  0  0  0  0  0  0  0  0
  -11.8849  -27.7401   29.1356 C   0  0  0  0  0  0  0  0  0  0  0  0
  -14.1464  -30.0460   28.5823 C   0  0  0  0  0  0  0  0  0  0  0  0
  -15.4035  -29.4434   27.9409 C   0  0  0  0  0  0  0  0  0  0  0  0
  -14.4064  -31.5160   28.9220 C   0  0  0  0  0  0  0  0  0  0  0  0
   -9.8819  -32.8548   24.4781 S   0  0  0  0  0  0  0  0  0  0  0  0
  -10.4228  -34.2371   23.6834 C   0  0  0  0  0  0  0  0  0  0  0  0
   -9.9085  -34.8252   22.5396 C   0  0  0  0  0  0  0  0  0  0  0  0
  -10.7028  -37.3119   20.4358 H   0  0  0  0  0  0  0  0  0  0  0  0
  -11.0398  -35.6328   19.9616 H   0  0  0  0  0  0  0  0  0  0  0  0
   -9.3786  -36.1598   20.3243 H   0  0  0  0  0  0  0  0  0  0  0  0
  -12.1817  -37.3619   22.3895 H   0  0  0  0  0  0  0  0  0  0  0  0
  -12.9491  -36.3352   24.5029 H   0  0  0  0  0  0  0  0  0  0  0  0
  -10.9238  -31.3718   26.9178 H   0  0  0  0  0  0  0  0  0  0  0  0
  -12.0594  -30.3483   28.3225 H   0  0  0  0  0  0  0  0  0  0  0  0
  -12.9486  -27.5233   25.9686 H   0  0  0  0  0  0  0  0  0  0  0  0
  -12.3262  -25.1717   26.4646 H   0  0  0  0  0  0  0  0  0  0  0  0
  -11.3805  -24.5629   28.6881 H   0  0  0  0  0  0  0  0  0  0  0  0
  -11.8553  -28.3544   30.0245 H   0  0  0  0  0  0  0  0  0  0  0  0
  -14.0217  -29.5934   29.5664 H   0  0  0  0  0  0  0  0  0  0  0  0
  -15.2139  -28.4675   27.4884 H   0  0  0  0  0  0  0  0  0  0  0  0
  -16.1831  -29.3120   28.7002 H   0  0  0  0  0  0  0  0  0  0  0  0
  -15.8276  -30.0948   27.1708 H   0  0  0  0  0  0  0  0  0  0  0  0
  -15.3583  -31.6288   29.4533 H   0  0  0  0  0  0  0  0  0  0  0  0
  -14.4413  -32.1595   28.0392 H   0  0  0  0  0  0  0  0  0  0  0  0
  -13.6252  -31.8721   29.5957 H   0  0  0  0  0  0  0  0  0  0  0  0
   -9.0838  -34.3732   21.9963 H   0  0  0  0  0  0  0  0  0  0  0  0
  1  2  1  0
  2  3  2  0
  3  4  1  0
  4  5  2  0
  5  6  1  0
  6  7  2  0
  7  8  1  0
  8  9  1  0
  9 10  2  0
  9 11  1  0
 11 12  1  0
 12 13  2  0
 13 14  1  0
 14 15  2  0
 15 16  1  0
 16 17  2  0
 11 18  1  0
 18 19  1  0
 18 20  1  0
  7 21  1  0
 21 22  1  0
 22 23  2  0
 23  2  1  0
 22  5  1  0
 17 12  1  0
  1 24  1  0
  1 25  1  0
  1 26  1  0
  3 27  1  0
  4 28  1  0
  8 29  1  0
 11 30  1  0
 13 31  1  0
 14 32  1  0
 15 33  1  0
 17 34  1  0
 18 35  1  0
 19 36  1  0
 19 37  1  0
 19 38  1  0
 20 39  1  0
 20 40  1  0
 20 41  1  0
 23 42  1  0
M  END
>  <Energy>  (1359) 
92.133672471837059

>  <compound_id>  (1359) 
6738

>  <target_id>  (1359) 
1

>  <reference_id>  (1359) 
82

>  <inspiration_ids>  (1359) 
[68, 82]

>  <energy_score>  (1359) 
-20.671533899254655

>  <distance_score>  (1359) 
4.539708312773371

>  <path>  (1359) 
/opt/xchem-fragalysis-2/maxwin/BulkDock/SCRATCH/511018/C6738-P82/C6738-P82.minimised.mol

>  <scratch_subdir>  (1359) 
/opt/xchem-fragalysis-2/maxwin/BulkDock/SCRATCH/511018/C6738-P82

>  <fragmenstein_runtime>  (1359) 
5.747901439666748

>  <fragmenstein_outcome>  (1359) 
too moved

>  <fragmenstein_mode>  (1359) 
expansion

>  <fragmenstein_error>  (1359) 


$$$$
C6739-P68
     RDKit          3D

 41 43  0  0  0  0  0  0  0  0999 V2000
   -5.6566  -33.0741   25.4016 C   0  0  0  0  0  0  0  0  0  0  0  0
   -7.4375  -32.7877   24.8846 C   0  0  0  0  0  0  0  0  0  0  0  0
   -7.9748  -30.8953   24.4039 N   0  0  0  0  0  0  0  0  0  0  0  0
   -8.1157  -29.2970   25.9693 C   0  0  0  0  0  0  0  0  0  0  0  0
   -9.8901  -28.5127   26.5145 C   0  0  0  0  0  0  0  0  0  0  0  0
  -10.2539  -27.0409   26.7243 N   0  0  0  0  0  0  0  0  0  0  0  0
  -11.3194  -26.2468   26.1851 C   0  0  0  0  0  0  0  0  0  0  0  0
  -12.2446  -26.5512   25.4997 O   0  0  0  0  0  0  0  0  0  0  0  0
  -11.0952  -24.7148   26.5144 C   0  0  0  0  0  0  0  0  0  0  0  0
  -12.0090  -23.7089   26.3074 C   0  0  0  0  0  0  0  0  0  0  0  0
  -11.8437  -22.4891   26.9793 C   0  0  0  0  0  0  0  0  0  0  0  0
  -11.0335  -22.4307   28.0810 C   0  0  0  0  0  0  0  0  0  0  0  0
  -10.0261  -23.2927   28.1818 N   0  0  0  0  0  0  0  0  0  0  0  0
  -10.0260  -24.2907   27.2727 C   0  0  0  0  0  0  0  0  0  0  0  0
   -9.3650  -31.8291   23.7458 C   0  0  0  0  0  0  0  0  0  0  0  0
   -9.7250  -33.0202   24.2626 N   0  0  0  0  0  0  0  0  0  0  0  0
  -10.5449  -33.8575   23.5465 C   0  0  0  0  0  0  0  0  0  0  0  0
  -10.8743  -35.1783   23.9104 C   0  0  0  0  0  0  0  0  0  0  0  0
  -11.6882  -35.9395   23.0704 C   0  0  0  0  0  0  0  0  0  0  0  0
  -12.1712  -35.3943   21.8856 C   0  0  0  0  0  0  0  0  0  0  0  0
  -11.8596  -34.0806   21.5198 C   0  0  0  0  0  0  0  0  0  0  0  0
  -11.0408  -33.3292   22.3776 C   0  0  0  0  0  0  0  0  0  0  0  0
  -10.5216  -31.7137   22.2198 S   0  0  0  0  0  0  0  0  0  0  0  0
   -5.5188  -33.0540   26.4919 H   0  0  0  0  0  0  0  0  0  0  0  0
   -5.2816  -34.0414   25.0576 H   0  0  0  0  0  0  0  0  0  0  0  0
   -5.0368  -32.2271   25.1125 H   0  0  0  0  0  0  0  0  0  0  0  0
   -7.7304  -33.7735   24.4318 H   0  0  0  0  0  0  0  0  0  0  0  0
   -7.9847  -33.1753   25.7789 H   0  0  0  0  0  0  0  0  0  0  0  0
   -7.4877  -29.0543   26.8646 H   0  0  0  0  0  0  0  0  0  0  0  0
   -7.6998  -28.5459   25.2891 H   0  0  0  0  0  0  0  0  0  0  0  0
  -10.3354  -29.1038   27.3003 H   0  0  0  0  0  0  0  0  0  0  0  0
  -10.2769  -28.3071   25.5334 H   0  0  0  0  0  0  0  0  0  0  0  0
   -9.7041  -26.4775   27.3200 H   0  0  0  0  0  0  0  0  0  0  0  0
  -12.9041  -23.8458   25.7098 H   0  0  0  0  0  0  0  0  0  0  0  0
  -12.4830  -21.6592   26.7614 H   0  0  0  0  0  0  0  0  0  0  0  0
  -11.0855  -21.6275   28.8025 H   0  0  0  0  0  0  0  0  0  0  0  0
   -9.0736  -24.7228   27.1412 H   0  0  0  0  0  0  0  0  0  0  0  0
  -10.4744  -35.5954   24.8286 H   0  0  0  0  0  0  0  0  0  0  0  0
  -11.9358  -36.9634   23.3392 H   0  0  0  0  0  0  0  0  0  0  0  0
  -12.8002  -35.9950   21.2316 H   0  0  0  0  0  0  0  0  0  0  0  0
  -12.2384  -33.6550   20.5947 H   0  0  0  0  0  0  0  0  0  0  0  0
  1  2  1  0
  2  3  1  0
  3  4  1  0
  4  5  1  0
  5  6  1  0
  6  7  1  0
  7  8  2  0
  7  9  1  0
  9 10  2  0
 10 11  1  0
 11 12  2  0
 12 13  1  0
 13 14  2  0
  3 15  1  0
 15 16  2  0
 16 17  1  0
 17 18  2  0
 18 19  1  0
 19 20  2  0
 20 21  1  0
 21 22  2  0
 22 23  1  0
 14  9  1  0
 23 15  1  0
 22 17  1  0
  1 24  1  0
  1 25  1  0
  1 26  1  0
  2 27  1  0
  2 28  1  0
  4 29  1  0
  4 30  1  0
  5 31  1  0
  5 32  1  0
  6 33  1  0
 10 34  1  0
 11 35  1  0
 12 36  1  0
 14 37  1  0
 18 38  1  0
 19 39  1  0
 20 40  1  0
 21 41  1  0
M  END
>  <Energy>  (1360) 
615.23009019717892

>  <compound_id>  (1360) 
6739

>  <target_id>  (1360) 
1

>  <reference_id>  (1360) 
68

>  <inspiration_ids>  (1360) 
[68, 82]

>  <energy_score>  (1360) 
497.25875350784804

>  <distance_score>  (1360) 
4.325884504206017

>  <path>  (1360) 
/opt/xchem-fragalysis-2/maxwin/BulkDock/SCRATCH/511018/C6739-P68/C6739-P68.minimised.mol

>  <scratch_subdir>  (1360) 
/opt/xchem-fragalysis-2/maxwin/BulkDock/SCRATCH/511018/C6739-P68

>  <fragmenstein_runtime>  (1360) 
11.81687068939209

>  <fragmenstein_outcome>  (1360) 
too moved

>  <fragmenstein_mode>  (1360) 
expansion

>  <fragmenstein_error>  (1360) 


$$$$
C6739-P82
     RDKit          3D

 41 43  0  0  0  0  0  0  0  0999 V2000
  -14.9123  -32.4617   24.5310 C   0  0  0  0  0  0  0  0  0  0  0  0
  -13.8202  -33.3089   25.1614 C   0  0  0  0  0  0  0  0  0  0  0  0
  -12.5144  -32.5950   25.1736 N   0  0  0  0  0  0  0  0  0  0  0  0
  -12.3790  -31.6554   26.3925 C   0  0  0  0  0  0  0  0  0  0  0  0
  -13.0941  -30.2280   26.4178 C   0  0  0  0  0  0  0  0  0  0  0  0
  -12.4069  -29.1097   27.1387 N   0  0  0  0  0  0  0  0  0  0  0  0
  -12.7931  -27.5912   27.2702 C   0  0  0  0  0  0  0  0  0  0  0  0
  -13.6632  -26.9822   26.7687 O   0  0  0  0  0  0  0  0  0  0  0  0
  -11.9391  -26.7565   28.2484 C   0  0  0  0  0  0  0  0  0  0  0  0
  -11.5419  -27.1810   29.5126 C   0  0  0  0  0  0  0  0  0  0  0  0
  -10.9166  -26.3477   30.4597 C   0  0  0  0  0  0  0  0  0  0  0  0
  -10.7703  -25.0307   30.1469 C   0  0  0  0  0  0  0  0  0  0  0  0
  -11.1284  -24.5467   28.9470 N   0  0  0  0  0  0  0  0  0  0  0  0
  -11.7170  -25.4022   28.0472 C   0  0  0  0  0  0  0  0  0  0  0  0
  -11.4592  -33.5237   24.8708 C   0  0  0  0  0  0  0  0  0  0  0  0
  -11.2040  -34.6386   25.5314 N   0  0  0  0  0  0  0  0  0  0  0  0
  -10.2653  -35.4333   24.8812 C   0  0  0  0  0  0  0  0  0  0  0  0
   -9.7850  -36.6677   25.3388 C   0  0  0  0  0  0  0  0  0  0  0  0
   -8.8697  -37.3631   24.5524 C   0  0  0  0  0  0  0  0  0  0  0  0
   -8.4279  -36.8460   23.3365 C   0  0  0  0  0  0  0  0  0  0  0  0
   -8.8777  -35.6180   22.8706 C   0  0  0  0  0  0  0  0  0  0  0  0
   -9.7983  -34.9412   23.6712 C   0  0  0  0  0  0  0  0  0  0  0  0
  -10.5372  -33.4489   23.3829 S   0  0  0  0  0  0  0  0  0  0  0  0
  -15.0942  -31.5413   25.0896 H   0  0  0  0  0  0  0  0  0  0  0  0
  -15.8521  -33.0226   24.5019 H   0  0  0  0  0  0  0  0  0  0  0  0
  -14.6517  -32.1926   23.5033 H   0  0  0  0  0  0  0  0  0  0  0  0
  -14.1100  -33.6102   26.1752 H   0  0  0  0  0  0  0  0  0  0  0  0
  -13.7547  -34.2327   24.5702 H   0  0  0  0  0  0  0  0  0  0  0  0
  -12.8675  -32.1459   27.2338 H   0  0  0  0  0  0  0  0  0  0  0  0
  -11.3164  -31.5175   26.6176 H   0  0  0  0  0  0  0  0  0  0  0  0
  -14.0605  -30.3375   26.9250 H   0  0  0  0  0  0  0  0  0  0  0  0
  -13.3325  -29.8427   25.4322 H   0  0  0  0  0  0  0  0  0  0  0  0
  -11.6535  -29.3213   27.7699 H   0  0  0  0  0  0  0  0  0  0  0  0
  -11.8072  -28.1738   29.8298 H   0  0  0  0  0  0  0  0  0  0  0  0
  -10.5960  -26.7186   31.4272 H   0  0  0  0  0  0  0  0  0  0  0  0
  -10.3627  -24.3261   30.8575 H   0  0  0  0  0  0  0  0  0  0  0  0
  -12.0436  -24.9154   27.1300 H   0  0  0  0  0  0  0  0  0  0  0  0
  -10.1367  -37.0708   26.2823 H   0  0  0  0  0  0  0  0  0  0  0  0
   -8.4962  -38.3266   24.8920 H   0  0  0  0  0  0  0  0  0  0  0  0
   -7.7081  -37.4070   22.7429 H   0  0  0  0  0  0  0  0  0  0  0  0
   -8.5225  -35.1999   21.9334 H   0  0  0  0  0  0  0  0  0  0  0  0
  1  2  1  0
  2  3  1  0
  3  4  1  0
  4  5  1  0
  5  6  1  0
  6  7  1  0
  7  8  2  0
  7  9  1  0
  9 10  2  0
 10 11  1  0
 11 12  2  0
 12 13  1  0
 13 14  2  0
  3 15  1  0
 15 16  2  0
 16 17  1  0
 17 18  2  0
 18 19  1  0
 19 20  2  0
 20 21  1  0
 21 22  2  0
 22 23  1  0
 14  9  1  0
 23 15  1  0
 22 17  1  0
  1 24  1  0
  1 25  1  0
  1 26  1  0
  2 27  1  0
  2 28  1  0
  4 29  1  0
  4 30  1  0
  5 31  1  0
  5 32  1  0
  6 33  1  0
 10 34  1  0
 11 35  1  0
 12 36  1  0
 14 37  1  0
 18 38  1  0
 19 39  1  0
 20 40  1  0
 21 41  1  0
M  END
>  <Energy>  (1361) 
75.773702111222548

>  <compound_id>  (1361) 
6739

>  <target_id>  (1361) 
1

>  <reference_id>  (1361) 
82

>  <inspiration_ids>  (1361) 
[68, 82]

>  <energy_score>  (1361) 
-54.690675702489955

>  <distance_score>  (1361) 
4.100366202365902

>  <path>  (1361) 
/opt/xchem-fragalysis-2/maxwin/BulkDock/SCRATCH/511018/C6739-P82/C6739-P82.minimised.mol

>  <scratch_subdir>  (1361) 
/opt/xchem-fragalysis-2/maxwin/BulkDock/SCRATCH/511018/C6739-P82

>  <fragmenstein_runtime>  (1361) 
9.61051344871521

>  <fragmenstein_outcome>  (1361) 
too moved

>  <fragmenstein_mode>  (1361) 
expansion

>  <fragmenstein_error>  (1361) 


$$$$
C6740-P68
     RDKit          3D

 41 43  0  0  0  0  0  0  0  0999 V2000
  -11.6675  -31.1896   20.9009 C   0  0  0  0  0  0  0  0  0  0  0  0
  -10.3495  -30.4990   21.2885 C   0  0  0  0  0  0  0  0  0  0  0  0
   -9.8624  -30.7879   22.8303 N   0  0  0  0  0  0  0  0  0  0  0  0
   -8.5506  -29.3740   23.3689 C   0  0  0  0  0  0  0  0  0  0  0  0
   -9.4466  -28.0185   24.7651 C   0  0  0  0  0  0  0  0  0  0  0  0
   -9.8408  -26.5457   25.3755 N   0  0  0  0  0  0  0  0  0  0  0  0
  -11.0829  -26.0504   25.9409 C   0  0  0  0  0  0  0  0  0  0  0  0
  -12.1594  -26.5670   26.0333 O   0  0  0  0  0  0  0  0  0  0  0  0
  -10.9369  -24.5997   26.4397 C   0  0  0  0  0  0  0  0  0  0  0  0
  -11.8736  -23.5919   26.2806 C   0  0  0  0  0  0  0  0  0  0  0  0
  -11.7893  -22.4238   27.0516 C   0  0  0  0  0  0  0  0  0  0  0  0
  -10.9833  -22.3830   28.1507 C   0  0  0  0  0  0  0  0  0  0  0  0
  -10.0171  -23.2875   28.2887 N   0  0  0  0  0  0  0  0  0  0  0  0
  -10.0272  -24.3353   27.4320 C   0  0  0  0  0  0  0  0  0  0  0  0
   -9.9229  -32.2891   22.9596 C   0  0  0  0  0  0  0  0  0  0  0  0
   -9.8369  -33.0926   21.8931 N   0  0  0  0  0  0  0  0  0  0  0  0
  -10.0998  -34.4451   22.1518 C   0  0  0  0  0  0  0  0  0  0  0  0
  -10.1296  -35.5179   21.2368 C   0  0  0  0  0  0  0  0  0  0  0  0
  -10.3534  -36.8295   21.6749 C   0  0  0  0  0  0  0  0  0  0  0  0
  -10.5754  -37.0864   23.0184 C   0  0  0  0  0  0  0  0  0  0  0  0
  -10.6051  -36.0343   23.9247 C   0  0  0  0  0  0  0  0  0  0  0  0
  -10.8821  -36.2842   25.2130 F   0  0  0  0  0  0  0  0  0  0  0  0
  -10.3812  -34.7317   23.4690 C   0  0  0  0  0  0  0  0  0  0  0  0
  -10.4755  -33.2730   24.2895 S   0  0  0  0  0  0  0  0  0  0  0  0
  -11.5160  -32.2150   20.5555 H   0  0  0  0  0  0  0  0  0  0  0  0
  -12.3849  -31.2275   21.7222 H   0  0  0  0  0  0  0  0  0  0  0  0
  -12.1278  -30.6789   20.0486 H   0  0  0  0  0  0  0  0  0  0  0  0
   -9.5917  -30.8195   20.5797 H   0  0  0  0  0  0  0  0  0  0  0  0
  -10.3490  -29.4293   21.0838 H   0  0  0  0  0  0  0  0  0  0  0  0
   -8.2840  -28.8491   22.4655 H   0  0  0  0  0  0  0  0  0  0  0  0
   -7.6412  -29.7947   23.7318 H   0  0  0  0  0  0  0  0  0  0  0  0
  -10.4922  -27.8370   24.5430 H   0  0  0  0  0  0  0  0  0  0  0  0
   -9.6661  -28.4675   25.7499 H   0  0  0  0  0  0  0  0  0  0  0  0
   -9.1480  -25.7995   25.3943 H   0  0  0  0  0  0  0  0  0  0  0  0
  -12.7447  -23.6815   25.6403 H   0  0  0  0  0  0  0  0  0  0  0  0
  -12.4500  -21.6035   26.8629 H   0  0  0  0  0  0  0  0  0  0  0  0
  -11.0450  -21.5929   28.8859 H   0  0  0  0  0  0  0  0  0  0  0  0
   -9.4456  -25.1345   27.7908 H   0  0  0  0  0  0  0  0  0  0  0  0
   -9.9922  -35.3292   20.1812 H   0  0  0  0  0  0  0  0  0  0  0  0
  -10.3577  -37.6441   20.9544 H   0  0  0  0  0  0  0  0  0  0  0  0
  -10.7514  -38.0989   23.3687 H   0  0  0  0  0  0  0  0  0  0  0  0
  1  2  1  0
  2  3  1  0
  3  4  1  0
  4  5  1  0
  5  6  1  0
  6  7  1  0
  7  8  2  0
  7  9  1  0
  9 10  2  0
 10 11  1  0
 11 12  2  0
 12 13  1  0
 13 14  2  0
  3 15  1  0
 15 16  2  0
 16 17  1  0
 17 18  2  0
 18 19  1  0
 19 20  2  0
 20 21  1  0
 21 22  1  0
 21 23  2  0
 23 24  1  0
 14  9  1  0
 24 15  1  0
 23 17  1  0
  1 25  1  0
  1 26  1  0
  1 27  1  0
  2 28  1  0
  2 29  1  0
  4 30  1  0
  4 31  1  0
  5 32  1  0
  5 33  1  0
  6 34  1  0
 10 35  1  0
 11 36  1  0
 12 37  1  0
 14 38  1  0
 18 39  1  0
 19 40  1  0
 20 41  1  0
M  END
>  <Energy>  (1362) 
335.74491280857865

>  <compound_id>  (1362) 
6740

>  <target_id>  (1362) 
1

>  <reference_id>  (1362) 
68

>  <inspiration_ids>  (1362) 
[68, 82]

>  <energy_score>  (1362) 
250.78941185469353

>  <distance_score>  (1362) 
4.491954385951352

>  <path>  (1362) 
/opt/xchem-fragalysis-2/maxwin/BulkDock/SCRATCH/511018/C6740-P68/C6740-P68.minimised.mol

>  <scratch_subdir>  (1362) 
/opt/xchem-fragalysis-2/maxwin/BulkDock/SCRATCH/511018/C6740-P68

>  <fragmenstein_runtime>  (1362) 
12.392698049545288

>  <fragmenstein_outcome>  (1362) 
too moved

>  <fragmenstein_mode>  (1362) 
expansion

>  <fragmenstein_error>  (1362) 


$$$$
C6740-P82
     RDKit          3D

 41 43  0  0  0  0  0  0  0  0999 V2000
  -14.2877  -33.6154   23.7727 C   0  0  0  0  0  0  0  0  0  0  0  0
  -13.8521  -33.1930   25.1686 C   0  0  0  0  0  0  0  0  0  0  0  0
  -12.5066  -32.5604   25.1787 N   0  0  0  0  0  0  0  0  0  0  0  0
  -12.3660  -31.6370   26.4070 C   0  0  0  0  0  0  0  0  0  0  0  0
  -13.0870  -30.2114   26.4141 C   0  0  0  0  0  0  0  0  0  0  0  0
  -12.4639  -29.1165   27.2193 N   0  0  0  0  0  0  0  0  0  0  0  0
  -12.8447  -27.5964   27.3405 C   0  0  0  0  0  0  0  0  0  0  0  0
  -13.7495  -27.0010   26.8861 O   0  0  0  0  0  0  0  0  0  0  0  0
  -11.9573  -26.7536   28.2792 C   0  0  0  0  0  0  0  0  0  0  0  0
  -11.5316  -27.1756   29.5352 C   0  0  0  0  0  0  0  0  0  0  0  0
  -10.9022  -26.3374   30.4738 C   0  0  0  0  0  0  0  0  0  0  0  0
  -10.7768  -25.0190   30.1588 C   0  0  0  0  0  0  0  0  0  0  0  0
  -11.1598  -24.5383   28.9650 N   0  0  0  0  0  0  0  0  0  0  0  0
  -11.7563  -25.3973   28.0749 C   0  0  0  0  0  0  0  0  0  0  0  0
  -11.4756  -33.5145   24.8720 C   0  0  0  0  0  0  0  0  0  0  0  0
  -11.2163  -34.6198   25.5460 N   0  0  0  0  0  0  0  0  0  0  0  0
  -10.2989  -35.4352   24.8923 C   0  0  0  0  0  0  0  0  0  0  0  0
   -9.8222  -36.6669   25.3669 C   0  0  0  0  0  0  0  0  0  0  0  0
   -8.9440  -37.4026   24.5737 C   0  0  0  0  0  0  0  0  0  0  0  0
   -8.5420  -36.9296   23.3282 C   0  0  0  0  0  0  0  0  0  0  0  0
   -8.9929  -35.7081   22.8575 C   0  0  0  0  0  0  0  0  0  0  0  0
   -8.6025  -35.2755   21.6526 F   0  0  0  0  0  0  0  0  0  0  0  0
   -9.8606  -34.9744   23.6592 C   0  0  0  0  0  0  0  0  0  0  0  0
  -10.5607  -33.4646   23.3739 S   0  0  0  0  0  0  0  0  0  0  0  0
  -14.2648  -32.7699   23.0788 H   0  0  0  0  0  0  0  0  0  0  0  0
  -13.6505  -34.4072   23.3680 H   0  0  0  0  0  0  0  0  0  0  0  0
  -15.3124  -33.9997   23.8014 H   0  0  0  0  0  0  0  0  0  0  0  0
  -13.8817  -34.0497   25.8536 H   0  0  0  0  0  0  0  0  0  0  0  0
  -14.5933  -32.4717   25.5335 H   0  0  0  0  0  0  0  0  0  0  0  0
  -11.3039  -31.4983   26.6331 H   0  0  0  0  0  0  0  0  0  0  0  0
  -12.8617  -32.1316   27.2424 H   0  0  0  0  0  0  0  0  0  0  0  0
  -14.0979  -30.3340   26.8215 H   0  0  0  0  0  0  0  0  0  0  0  0
  -13.2330  -29.7939   25.4244 H   0  0  0  0  0  0  0  0  0  0  0  0
  -11.5774  -29.2783   27.6666 H   0  0  0  0  0  0  0  0  0  0  0  0
  -11.7862  -28.1702   29.8554 H   0  0  0  0  0  0  0  0  0  0  0  0
  -10.5680  -26.7058   31.4375 H   0  0  0  0  0  0  0  0  0  0  0  0
  -10.3681  -24.3091   30.8633 H   0  0  0  0  0  0  0  0  0  0  0  0
  -12.1118  -24.9116   27.1680 H   0  0  0  0  0  0  0  0  0  0  0  0
  -10.1536  -37.0391   26.3312 H   0  0  0  0  0  0  0  0  0  0  0  0
   -8.5772  -38.3636   24.9279 H   0  0  0  0  0  0  0  0  0  0  0  0
   -7.8631  -37.5121   22.7109 H   0  0  0  0  0  0  0  0  0  0  0  0
  1  2  1  0
  2  3  1  0
  3  4  1  0
  4  5  1  0
  5  6  1  0
  6  7  1  0
  7  8  2  0
  7  9  1  0
  9 10  2  0
 10 11  1  0
 11 12  2  0
 12 13  1  0
 13 14  2  0
  3 15  1  0
 15 16  2  0
 16 17  1  0
 17 18  2  0
 18 19  1  0
 19 20  2  0
 20 21  1  0
 21 22  1  0
 21 23  2  0
 23 24  1  0
 14  9  1  0
 24 15  1  0
 23 17  1  0
  1 25  1  0
  1 26  1  0
  1 27  1  0
  2 28  1  0
  2 29  1  0
  4 30  1  0
  4 31  1  0
  5 32  1  0
  5 33  1  0
  6 34  1  0
 10 35  1  0
 11 36  1  0
 12 37  1  0
 14 38  1  0
 18 39  1  0
 19 40  1  0
 20 41  1  0
M  END
>  <Energy>  (1363) 
68.93275022538019

>  <compound_id>  (1363) 
6740

>  <target_id>  (1363) 
1

>  <reference_id>  (1363) 
82

>  <inspiration_ids>  (1363) 
[68, 82]

>  <energy_score>  (1363) 
-25.006029652755842

>  <distance_score>  (1363) 
4.092264447613392

>  <path>  (1363) 
/opt/xchem-fragalysis-2/maxwin/BulkDock/SCRATCH/511018/C6740-P82/C6740-P82.minimised.mol

>  <scratch_subdir>  (1363) 
/opt/xchem-fragalysis-2/maxwin/BulkDock/SCRATCH/511018/C6740-P82

>  <fragmenstein_runtime>  (1363) 
10.235661745071411

>  <fragmenstein_outcome>  (1363) 
too moved

>  <fragmenstein_mode>  (1363) 
expansion

>  <fragmenstein_error>  (1363) 


$$$$
C6741-P68
     RDKit          3D

 48 51  0  0  0  0  0  0  0  0999 V2000
   -9.1702  -36.2501   26.6454 C   0  0  0  0  0  0  0  0  0  0  0  0
   -8.7866  -34.8427   27.1789 C   0  0  0  0  0  0  0  0  0  0  0  0
   -9.8167  -33.8860   27.1194 N   0  0  0  0  0  0  0  0  0  0  0  0
   -9.6776  -32.4039   28.2487 C   0  0  0  0  0  0  0  0  0  0  0  0
  -10.1269  -30.8614   27.4796 C   0  0  0  0  0  0  0  0  0  0  0  0
  -10.2685  -29.4389   27.5100 N   0  0  0  0  0  0  0  0  0  0  0  0
   -9.5113  -28.5092   28.0099 C   0  0  0  0  0  0  0  0  0  0  0  0
   -8.5277  -28.5804   28.6506 O   0  0  0  0  0  0  0  0  0  0  0  0
  -10.2376  -27.1557   27.5401 C   0  0  0  0  0  0  0  0  0  0  0  0
  -11.2418  -27.0271   26.3495 C   0  0  0  0  0  0  0  0  0  0  0  0
  -10.2341  -25.9795   26.4613 C   0  0  0  0  0  0  0  0  0  0  0  0
  -10.5459  -24.5331   26.8398 C   0  0  0  0  0  0  0  0  0  0  0  0
  -11.6383  -23.8018   26.4170 C   0  0  0  0  0  0  0  0  0  0  0  0
  -11.8729  -22.5131   26.8690 C   0  0  0  0  0  0  0  0  0  0  0  0
  -11.3242  -22.1343   28.0585 C   0  0  0  0  0  0  0  0  0  0  0  0
  -10.2876  -22.7888   28.5383 N   0  0  0  0  0  0  0  0  0  0  0  0
   -9.8934  -23.9027   27.8760 C   0  0  0  0  0  0  0  0  0  0  0  0
  -10.4839  -33.9027   25.7852 C   0  0  0  0  0  0  0  0  0  0  0  0
  -11.7516  -33.5814   25.6058 N   0  0  0  0  0  0  0  0  0  0  0  0
  -12.1590  -33.8124   24.3031 C   0  0  0  0  0  0  0  0  0  0  0  0
  -13.4701  -33.6652   23.8168 C   0  0  0  0  0  0  0  0  0  0  0  0
  -13.7370  -33.8976   22.4642 C   0  0  0  0  0  0  0  0  0  0  0  0
  -12.7172  -34.2708   21.5948 C   0  0  0  0  0  0  0  0  0  0  0  0
  -11.4109  -34.4338   22.0562 C   0  0  0  0  0  0  0  0  0  0  0  0
  -11.1640  -34.2052   23.4179 C   0  0  0  0  0  0  0  0  0  0  0  0
   -9.7065  -34.3413   24.2752 S   0  0  0  0  0  0  0  0  0  0  0  0
   -8.6375  -37.0357   27.1594 H   0  0  0  0  0  0  0  0  0  0  0  0
  -10.2319  -36.4947   26.6975 H   0  0  0  0  0  0  0  0  0  0  0  0
   -8.8453  -36.3989   25.6119 H   0  0  0  0  0  0  0  0  0  0  0  0
   -8.1015  -34.3516   26.5027 H   0  0  0  0  0  0  0  0  0  0  0  0
   -8.4103  -34.8906   28.1978 H   0  0  0  0  0  0  0  0  0  0  0  0
   -8.8838  -31.7621   28.3214 H   0  0  0  0  0  0  0  0  0  0  0  0
   -9.8379  -32.5930   29.2906 H   0  0  0  0  0  0  0  0  0  0  0  0
  -10.5557  -30.7407   26.5542 H   0  0  0  0  0  0  0  0  0  0  0  0
  -10.9779  -31.4638   26.9235 H   0  0  0  0  0  0  0  0  0  0  0  0
  -11.0748  -29.0030   27.0929 H   0  0  0  0  0  0  0  0  0  0  0  0
  -10.1276  -26.6189   28.4561 H   0  0  0  0  0  0  0  0  0  0  0  0
  -12.2776  -26.7385   26.4790 H   0  0  0  0  0  0  0  0  0  0  0  0
  -11.1304  -27.6043   25.4513 H   0  0  0  0  0  0  0  0  0  0  0  0
   -9.5507  -25.9573   25.6617 H   0  0  0  0  0  0  0  0  0  0  0  0
  -12.4554  -24.2430   25.8664 H   0  0  0  0  0  0  0  0  0  0  0  0
  -12.6364  -21.9320   26.3962 H   0  0  0  0  0  0  0  0  0  0  0  0
  -11.7035  -21.3210   28.6556 H   0  0  0  0  0  0  0  0  0  0  0  0
   -9.0944  -24.3844   28.3763 H   0  0  0  0  0  0  0  0  0  0  0  0
  -14.2636  -33.3693   24.4953 H   0  0  0  0  0  0  0  0  0  0  0  0
  -14.7513  -33.7817   22.0888 H   0  0  0  0  0  0  0  0  0  0  0  0
  -12.9386  -34.4417   20.5429 H   0  0  0  0  0  0  0  0  0  0  0  0
  -10.6139  -34.7323   21.3819 H   0  0  0  0  0  0  0  0  0  0  0  0
  1  2  1  0
  2  3  1  0
  3  4  1  0
  4  5  1  0
  5  6  1  0
  6  7  1  0
  7  8  2  0
  7  9  1  0
  9 10  1  0
 10 11  1  0
 11 12  1  0
 12 13  2  0
 13 14  1  0
 14 15  2  0
 15 16  1  0
 16 17  2  0
  3 18  1  0
 18 19  2  0
 19 20  1  0
 20 21  2  0
 21 22  1  0
 22 23  2  0
 23 24  1  0
 24 25  2  0
 25 26  1  0
 11  9  1  0
 17 12  1  0
 26 18  1  0
 25 20  1  0
  1 27  1  0
  1 28  1  0
  1 29  1  0
  2 30  1  0
  2 31  1  0
  4 32  1  0
  4 33  1  0
  5 34  1  0
  5 35  1  0
  6 36  1  0
  9 37  1  0
 10 38  1  0
 10 39  1  0
 11 40  1  0
 13 41  1  0
 14 42  1  0
 15 43  1  0
 17 44  1  0
 21 45  1  0
 22 46  1  0
 23 47  1  0
 24 48  1  0
M  END
>  <Energy>  (1364) 
321.99424501604659

>  <compound_id>  (1364) 
6741

>  <target_id>  (1364) 
1

>  <reference_id>  (1364) 
68

>  <inspiration_ids>  (1364) 
[68, 82]

>  <energy_score>  (1364) 
215.65529554161776

>  <distance_score>  (1364) 
4.418743034942385

>  <path>  (1364) 
/opt/xchem-fragalysis-2/maxwin/BulkDock/SCRATCH/511018/C6741-P68/C6741-P68.minimised.mol

>  <scratch_subdir>  (1364) 
/opt/xchem-fragalysis-2/maxwin/BulkDock/SCRATCH/511018/C6741-P68

>  <fragmenstein_runtime>  (1364) 
21.09515619277954

>  <fragmenstein_outcome>  (1364) 
too moved

>  <fragmenstein_mode>  (1364) 
expansion

>  <fragmenstein_error>  (1364) 


$$$$
C6741-P82
     RDKit          3D

 48 51  0  0  0  0  0  0  0  0999 V2000
  -14.8541  -32.9455   23.5099 C   0  0  0  0  0  0  0  0  0  0  0  0
  -14.0380  -33.6508   24.5793 C   0  0  0  0  0  0  0  0  0  0  0  0
  -12.7390  -32.9698   24.7751 N   0  0  0  0  0  0  0  0  0  0  0  0
  -12.6731  -32.1442   26.0388 C   0  0  0  0  0  0  0  0  0  0  0  0
  -13.5241  -30.8329   26.1443 C   0  0  0  0  0  0  0  0  0  0  0  0
  -13.0296  -29.7208   26.9962 N   0  0  0  0  0  0  0  0  0  0  0  0
  -12.3232  -28.3828   26.6070 C   0  0  0  0  0  0  0  0  0  0  0  0
  -11.9582  -27.9954   25.5681 O   0  0  0  0  0  0  0  0  0  0  0  0
  -12.2075  -27.4265   27.8029 C   0  0  0  0  0  0  0  0  0  0  0  0
  -12.6157  -25.9964   27.4290 C   0  0  0  0  0  0  0  0  0  0  0  0
  -11.3042  -26.2058   28.1151 C   0  0  0  0  0  0  0  0  0  0  0  0
  -11.1965  -25.6335   29.5601 C   0  0  0  0  0  0  0  0  0  0  0  0
  -11.8392  -24.4510   29.9725 C   0  0  0  0  0  0  0  0  0  0  0  0
  -11.8457  -24.0278   31.3071 C   0  0  0  0  0  0  0  0  0  0  0  0
  -11.1466  -24.7737   32.2262 C   0  0  0  0  0  0  0  0  0  0  0  0
  -10.4375  -25.8608   31.8835 N   0  0  0  0  0  0  0  0  0  0  0  0
  -10.4792  -26.2555   30.5794 C   0  0  0  0  0  0  0  0  0  0  0  0
  -11.6495  -33.8189   24.4770 C   0  0  0  0  0  0  0  0  0  0  0  0
  -11.0654  -34.6504   25.3140 N   0  0  0  0  0  0  0  0  0  0  0  0
  -10.0898  -35.4018   24.6756 C   0  0  0  0  0  0  0  0  0  0  0  0
   -9.3019  -36.3895   25.2823 C   0  0  0  0  0  0  0  0  0  0  0  0
   -8.3349  -37.0359   24.5196 C   0  0  0  0  0  0  0  0  0  0  0  0
   -8.1494  -36.7148   23.1769 C   0  0  0  0  0  0  0  0  0  0  0  0
   -8.9326  -35.7557   22.5476 C   0  0  0  0  0  0  0  0  0  0  0  0
   -9.9040  -35.1268   23.3258 C   0  0  0  0  0  0  0  0  0  0  0  0
  -11.0486  -33.9695   22.8440 S   0  0  0  0  0  0  0  0  0  0  0  0
  -15.8036  -33.4670   23.3534 H   0  0  0  0  0  0  0  0  0  0  0  0
  -15.0812  -31.9161   23.7998 H   0  0  0  0  0  0  0  0  0  0  0  0
  -14.3199  -32.9214   22.5552 H   0  0  0  0  0  0  0  0  0  0  0  0
  -13.9051  -34.6998   24.2825 H   0  0  0  0  0  0  0  0  0  0  0  0
  -14.6139  -33.6745   25.5123 H   0  0  0  0  0  0  0  0  0  0  0  0
  -11.6303  -31.9107   26.2732 H   0  0  0  0  0  0  0  0  0  0  0  0
  -13.1057  -32.7590   26.8283 H   0  0  0  0  0  0  0  0  0  0  0  0
  -14.4894  -31.1080   26.5895 H   0  0  0  0  0  0  0  0  0  0  0  0
  -13.7854  -30.3983   25.1919 H   0  0  0  0  0  0  0  0  0  0  0  0
  -13.2815  -29.6983   27.9735 H   0  0  0  0  0  0  0  0  0  0  0  0
  -12.4739  -27.9125   28.7212 H   0  0  0  0  0  0  0  0  0  0  0  0
  -13.4228  -25.5265   27.9628 H   0  0  0  0  0  0  0  0  0  0  0  0
  -12.5706  -25.6866   26.3876 H   0  0  0  0  0  0  0  0  0  0  0  0
  -10.4082  -26.1051   27.5081 H   0  0  0  0  0  0  0  0  0  0  0  0
  -12.3878  -23.8590   29.2458 H   0  0  0  0  0  0  0  0  0  0  0  0
  -12.4087  -23.1525   31.6072 H   0  0  0  0  0  0  0  0  0  0  0  0
  -11.1427  -24.5145   33.2787 H   0  0  0  0  0  0  0  0  0  0  0  0
   -9.9009  -27.1527   30.3859 H   0  0  0  0  0  0  0  0  0  0  0  0
   -9.4470  -36.6310   26.3294 H   0  0  0  0  0  0  0  0  0  0  0  0
   -7.7121  -37.7992   24.9800 H   0  0  0  0  0  0  0  0  0  0  0  0
   -7.3769  -37.2253   22.6045 H   0  0  0  0  0  0  0  0  0  0  0  0
   -8.7916  -35.5053   21.5010 H   0  0  0  0  0  0  0  0  0  0  0  0
  1  2  1  0
  2  3  1  0
  3  4  1  0
  4  5  1  0
  5  6  1  0
  6  7  1  0
  7  8  2  0
  7  9  1  0
  9 10  1  0
 10 11  1  0
 11 12  1  0
 12 13  2  0
 13 14  1  0
 14 15  2  0
 15 16  1  0
 16 17  2  0
  3 18  1  0
 18 19  2  0
 19 20  1  0
 20 21  2  0
 21 22  1  0
 22 23  2  0
 23 24  1  0
 24 25  2  0
 25 26  1  0
 11  9  1  0
 17 12  1  0
 26 18  1  0
 25 20  1  0
  1 27  1  0
  1 28  1  0
  1 29  1  0
  2 30  1  0
  2 31  1  0
  4 32  1  0
  4 33  1  0
  5 34  1  0
  5 35  1  0
  6 36  1  0
  9 37  1  0
 10 38  1  0
 10 39  1  0
 11 40  1  0
 13 41  1  0
 14 42  1  0
 15 43  1  0
 17 44  1  0
 21 45  1  0
 22 46  1  0
 23 47  1  0
 24 48  1  0
M  END
>  <Energy>  (1365) 
62.634780758088269

>  <compound_id>  (1365) 
6741

>  <target_id>  (1365) 
1

>  <reference_id>  (1365) 
82

>  <inspiration_ids>  (1365) 
[68, 82]

>  <energy_score>  (1365) 
-33.3880061422671

>  <distance_score>  (1365) 
3.0243373390886745

>  <path>  (1365) 
/opt/xchem-fragalysis-2/maxwin/BulkDock/SCRATCH/511018/C6741-P82/C6741-P82.minimised.mol

>  <scratch_subdir>  (1365) 
/opt/xchem-fragalysis-2/maxwin/BulkDock/SCRATCH/511018/C6741-P82

>  <fragmenstein_runtime>  (1365) 
11.159734725952148

>  <fragmenstein_outcome>  (1365) 
too moved

>  <fragmenstein_mode>  (1365) 
expansion

>  <fragmenstein_error>  (1365) 


$$$$
C6742-P68
     RDKit          3D

 44 46  0  0  0  0  0  0  0  0999 V2000
   -5.6462  -33.1910   25.4430 C   0  0  0  0  0  0  0  0  0  0  0  0
   -7.3014  -32.6545   24.7588 C   0  0  0  0  0  0  0  0  0  0  0  0
   -7.9741  -30.8189   24.3879 N   0  0  0  0  0  0  0  0  0  0  0  0
   -8.1008  -29.2898   25.9951 C   0  0  0  0  0  0  0  0  0  0  0  0
   -9.7446  -28.7226   26.9030 C   0  0  0  0  0  0  0  0  0  0  0  0
  -10.1216  -27.2824   27.1696 N   0  0  0  0  0  0  0  0  0  0  0  0
  -10.5972  -26.2675   26.2884 C   0  0  0  0  0  0  0  0  0  0  0  0
  -10.8908  -26.3266   25.1580 O   0  0  0  0  0  0  0  0  0  0  0  0
  -10.6653  -24.8101   26.7655 C   0  0  0  0  0  0  0  0  0  0  0  0
  -11.7248  -24.0006   26.3724 C   0  0  0  0  0  0  0  0  0  0  0  0
  -11.8589  -22.6930   26.8103 C   0  0  0  0  0  0  0  0  0  0  0  0
  -11.2129  -22.3319   27.9571 C   0  0  0  0  0  0  0  0  0  0  0  0
  -10.1840  -23.0470   28.3881 N   0  0  0  0  0  0  0  0  0  0  0  0
   -9.9163  -24.2164   27.7481 C   0  0  0  0  0  0  0  0  0  0  0  0
   -9.3493  -31.7460   23.7082 C   0  0  0  0  0  0  0  0  0  0  0  0
  -10.2007  -31.4252   22.7283 N   0  0  0  0  0  0  0  0  0  0  0  0
  -10.9550  -32.4524   22.1732 C   0  0  0  0  0  0  0  0  0  0  0  0
  -11.7627  -32.3155   21.0314 C   0  0  0  0  0  0  0  0  0  0  0  0
  -12.4493  -33.4183   20.5262 C   0  0  0  0  0  0  0  0  0  0  0  0
  -12.3552  -34.6518   21.1562 C   0  0  0  0  0  0  0  0  0  0  0  0
  -11.5890  -34.8214   22.3204 C   0  0  0  0  0  0  0  0  0  0  0  0
  -11.5059  -36.1829   22.9520 C   0  0  0  0  0  0  0  0  0  0  0  0
  -10.8889  -33.6853   22.7928 C   0  0  0  0  0  0  0  0  0  0  0  0
   -9.8878  -33.5555   24.1575 S   0  0  0  0  0  0  0  0  0  0  0  0
   -4.8692  -32.4829   25.1460 H   0  0  0  0  0  0  0  0  0  0  0  0
   -5.3735  -34.1725   25.0473 H   0  0  0  0  0  0  0  0  0  0  0  0
   -5.5502  -33.0968   26.5299 H   0  0  0  0  0  0  0  0  0  0  0  0
   -6.4860  -31.9839   24.6061 H   0  0  0  0  0  0  0  0  0  0  0  0
   -7.9006  -33.1784   25.5128 H   0  0  0  0  0  0  0  0  0  0  0  0
   -7.4029  -29.0265   26.8431 H   0  0  0  0  0  0  0  0  0  0  0  0
   -7.7549  -28.5252   25.2996 H   0  0  0  0  0  0  0  0  0  0  0  0
  -10.2740  -28.5141   26.0103 H   0  0  0  0  0  0  0  0  0  0  0  0
  -10.1033  -29.4477   27.5900 H   0  0  0  0  0  0  0  0  0  0  0  0
  -10.0473  -26.9014   28.0972 H   0  0  0  0  0  0  0  0  0  0  0  0
  -12.5815  -24.4120   25.8481 H   0  0  0  0  0  0  0  0  0  0  0  0
  -12.6065  -22.0578   26.3704 H   0  0  0  0  0  0  0  0  0  0  0  0
  -11.4782  -21.4633   28.5372 H   0  0  0  0  0  0  0  0  0  0  0  0
   -9.2065  -24.7547   28.3053 H   0  0  0  0  0  0  0  0  0  0  0  0
  -11.8152  -31.3546   20.5277 H   0  0  0  0  0  0  0  0  0  0  0  0
  -13.0454  -33.3094   19.6232 H   0  0  0  0  0  0  0  0  0  0  0  0
  -12.8917  -35.4988   20.7311 H   0  0  0  0  0  0  0  0  0  0  0  0
  -11.3641  -36.1155   24.0347 H   0  0  0  0  0  0  0  0  0  0  0  0
  -12.4298  -36.7469   22.7852 H   0  0  0  0  0  0  0  0  0  0  0  0
  -10.6707  -36.7420   22.5189 H   0  0  0  0  0  0  0  0  0  0  0  0
  1  2  1  0
  2  3  1  0
  3  4  1  0
  4  5  1  0
  5  6  1  0
  6  7  1  0
  7  8  2  0
  7  9  1  0
  9 10  2  0
 10 11  1  0
 11 12  2  0
 12 13  1  0
 13 14  2  0
  3 15  1  0
 15 16  2  0
 16 17  1  0
 17 18  2  0
 18 19  1  0
 19 20  2  0
 20 21  1  0
 21 22  1  0
 21 23  2  0
 23 24  1  0
 14  9  1  0
 24 15  1  0
 23 17  1  0
  1 25  1  0
  1 26  1  0
  1 27  1  0
  2 28  1  0
  2 29  1  0
  4 30  1  0
  4 31  1  0
  5 32  1  0
  5 33  1  0
  6 34  1  0
 10 35  1  0
 11 36  1  0
 12 37  1  0
 14 38  1  0
 18 39  1  0
 19 40  1  0
 20 41  1  0
 22 42  1  0
 22 43  1  0
 22 44  1  0
M  END
>  <Energy>  (1366) 
623.3686511063504

>  <compound_id>  (1366) 
6742

>  <target_id>  (1366) 
1

>  <reference_id>  (1366) 
68

>  <inspiration_ids>  (1366) 
[68, 82]

>  <energy_score>  (1366) 
510.7289707897021

>  <distance_score>  (1366) 
4.700533753756717

>  <path>  (1366) 
/opt/xchem-fragalysis-2/maxwin/BulkDock/SCRATCH/511018/C6742-P68/C6742-P68.minimised.mol

>  <scratch_subdir>  (1366) 
/opt/xchem-fragalysis-2/maxwin/BulkDock/SCRATCH/511018/C6742-P68

>  <fragmenstein_runtime>  (1366) 
18.345869779586792

>  <fragmenstein_outcome>  (1366) 
too moved

>  <fragmenstein_mode>  (1366) 
expansion

>  <fragmenstein_error>  (1366) 


$$$$
C6742-P82
     RDKit          3D

 44 46  0  0  0  0  0  0  0  0999 V2000
  -14.4056  -33.9436   25.8300 C   0  0  0  0  0  0  0  0  0  0  0  0
  -13.8163  -32.9173   24.8726 C   0  0  0  0  0  0  0  0  0  0  0  0
  -12.4444  -32.4919   25.2179 N   0  0  0  0  0  0  0  0  0  0  0  0
  -12.3586  -31.5814   26.4506 C   0  0  0  0  0  0  0  0  0  0  0  0
  -13.0885  -30.1501   26.4437 C   0  0  0  0  0  0  0  0  0  0  0  0
  -12.4401  -29.0053   27.1635 N   0  0  0  0  0  0  0  0  0  0  0  0
  -12.9057  -27.5083   27.3332 C   0  0  0  0  0  0  0  0  0  0  0  0
  -13.8246  -26.9397   26.8682 O   0  0  0  0  0  0  0  0  0  0  0  0
  -12.0675  -26.6168   28.2962 C   0  0  0  0  0  0  0  0  0  0  0  0
  -12.1328  -25.2147   28.2658 C   0  0  0  0  0  0  0  0  0  0  0  0
  -11.6383  -24.4217   29.3289 C   0  0  0  0  0  0  0  0  0  0  0  0
  -11.0400  -25.0397   30.4088 C   0  0  0  0  0  0  0  0  0  0  0  0
  -10.9220  -26.3698   30.4794 N   0  0  0  0  0  0  0  0  0  0  0  0
  -11.4903  -27.0846   29.4610 C   0  0  0  0  0  0  0  0  0  0  0  0
  -11.4531  -33.4767   24.9028 C   0  0  0  0  0  0  0  0  0  0  0  0
  -11.2164  -34.5915   25.5646 N   0  0  0  0  0  0  0  0  0  0  0  0
  -10.2988  -35.4135   24.9166 C   0  0  0  0  0  0  0  0  0  0  0  0
   -9.8629  -36.6566   25.3918 C   0  0  0  0  0  0  0  0  0  0  0  0
   -8.9683  -37.3895   24.6226 C   0  0  0  0  0  0  0  0  0  0  0  0
   -8.4924  -36.8925   23.4116 C   0  0  0  0  0  0  0  0  0  0  0  0
   -8.8732  -35.6402   22.9203 C   0  0  0  0  0  0  0  0  0  0  0  0
   -8.3109  -35.1489   21.6174 C   0  0  0  0  0  0  0  0  0  0  0  0
   -9.8062  -34.9422   23.7057 C   0  0  0  0  0  0  0  0  0  0  0  0
  -10.5444  -33.4462   23.4033 S   0  0  0  0  0  0  0  0  0  0  0  0
  -13.8195  -34.8665   25.8508 H   0  0  0  0  0  0  0  0  0  0  0  0
  -15.4210  -34.2046   25.5140 H   0  0  0  0  0  0  0  0  0  0  0  0
  -14.4674  -33.5595   26.8520 H   0  0  0  0  0  0  0  0  0  0  0  0
  -13.8320  -33.3240   23.8533 H   0  0  0  0  0  0  0  0  0  0  0  0
  -14.4687  -32.0367   24.8501 H   0  0  0  0  0  0  0  0  0  0  0  0
  -12.8661  -32.0854   27.2709 H   0  0  0  0  0  0  0  0  0  0  0  0
  -11.3045  -31.4308   26.7049 H   0  0  0  0  0  0  0  0  0  0  0  0
  -13.2927  -29.7840   25.4425 H   0  0  0  0  0  0  0  0  0  0  0  0
  -14.0740  -30.2655   26.9116 H   0  0  0  0  0  0  0  0  0  0  0  0
  -11.5647  -29.1411   27.6371 H   0  0  0  0  0  0  0  0  0  0  0  0
  -12.6419  -24.7192   27.4405 H   0  0  0  0  0  0  0  0  0  0  0  0
  -11.7531  -23.3433   29.3008 H   0  0  0  0  0  0  0  0  0  0  0  0
  -10.6516  -24.4802   31.2520 H   0  0  0  0  0  0  0  0  0  0  0  0
  -11.6161  -28.1142   29.7235 H   0  0  0  0  0  0  0  0  0  0  0  0
  -10.2387  -37.0376   26.3353 H   0  0  0  0  0  0  0  0  0  0  0  0
   -8.6350  -38.3643   24.9713 H   0  0  0  0  0  0  0  0  0  0  0  0
   -7.7872  -37.4974   22.8415 H   0  0  0  0  0  0  0  0  0  0  0  0
   -8.3563  -34.0588   21.5391 H   0  0  0  0  0  0  0  0  0  0  0  0
   -7.2574  -35.4336   21.5227 H   0  0  0  0  0  0  0  0  0  0  0  0
   -8.8703  -35.5843   20.7837 H   0  0  0  0  0  0  0  0  0  0  0  0
  1  2  1  0
  2  3  1  0
  3  4  1  0
  4  5  1  0
  5  6  1  0
  6  7  1  0
  7  8  2  0
  7  9  1  0
  9 10  2  0
 10 11  1  0
 11 12  2  0
 12 13  1  0
 13 14  2  0
  3 15  1  0
 15 16  2  0
 16 17  1  0
 17 18  2  0
 18 19  1  0
 19 20  2  0
 20 21  1  0
 21 22  1  0
 21 23  2  0
 23 24  1  0
 14  9  1  0
 24 15  1  0
 23 17  1  0
  1 25  1  0
  1 26  1  0
  1 27  1  0
  2 28  1  0
  2 29  1  0
  4 30  1  0
  4 31  1  0
  5 32  1  0
  5 33  1  0
  6 34  1  0
 10 35  1  0
 11 36  1  0
 12 37  1  0
 14 38  1  0
 18 39  1  0
 19 40  1  0
 20 41  1  0
 22 42  1  0
 22 43  1  0
 22 44  1  0
M  END
>  <Energy>  (1367) 
82.53596709651346

>  <compound_id>  (1367) 
6742

>  <target_id>  (1367) 
1

>  <reference_id>  (1367) 
82

>  <inspiration_ids>  (1367) 
[68, 82]

>  <energy_score>  (1367) 
-31.841182112189927

>  <distance_score>  (1367) 
3.874478049461151

>  <path>  (1367) 
/opt/xchem-fragalysis-2/maxwin/BulkDock/SCRATCH/511018/C6742-P82/C6742-P82.minimised.mol

>  <scratch_subdir>  (1367) 
/opt/xchem-fragalysis-2/maxwin/BulkDock/SCRATCH/511018/C6742-P82

>  <fragmenstein_runtime>  (1367) 
10.062980651855469

>  <fragmenstein_outcome>  (1367) 
too moved

>  <fragmenstein_mode>  (1367) 
expansion

>  <fragmenstein_error>  (1367) 


$$$$
C6743-P68
     RDKit          3D

 44 47  0  0  0  0  0  0  0  0999 V2000
   -8.7180  -33.2696   24.6870 C   0  0  0  0  0  0  0  0  0  0  0  0
   -9.2687  -31.8204   23.8163 C   0  0  0  0  0  0  0  0  0  0  0  0
  -10.2476  -32.4716   23.3246 N   0  0  0  0  0  0  0  0  0  0  0  0
  -10.7923  -31.8525   22.3802 N   0  0  0  0  0  0  0  0  0  0  0  0
  -11.5146  -32.6879   21.5277 C   0  0  0  0  0  0  0  0  0  0  0  0
  -11.8895  -32.5106   20.2900 N   0  0  0  0  0  0  0  0  0  0  0  0
  -12.3038  -33.7191   19.7508 C   0  0  0  0  0  0  0  0  0  0  0  0
  -12.6612  -33.9393   18.4111 C   0  0  0  0  0  0  0  0  0  0  0  0
  -13.0145  -35.2246   17.9888 C   0  0  0  0  0  0  0  0  0  0  0  0
  -13.0289  -36.2893   18.8826 C   0  0  0  0  0  0  0  0  0  0  0  0
  -12.6978  -36.0962   20.2212 C   0  0  0  0  0  0  0  0  0  0  0  0
  -12.3410  -34.8027   20.6249 C   0  0  0  0  0  0  0  0  0  0  0  0
  -11.9082  -34.2625   22.1749 S   0  0  0  0  0  0  0  0  0  0  0  0
  -10.2463  -30.6084   22.1112 C   0  0  0  0  0  0  0  0  0  0  0  0
  -10.7148  -30.1326   21.0971 O   0  0  0  0  0  0  0  0  0  0  0  0
   -8.9417  -29.8869   23.4542 C   0  0  0  0  0  0  0  0  0  0  0  0
   -9.3412  -28.3429   24.5810 C   0  0  0  0  0  0  0  0  0  0  0  0
   -9.9431  -28.5185   26.4663 C   0  0  0  0  0  0  0  0  0  0  0  0
  -10.3261  -27.2330   24.7744 N   0  0  0  0  0  0  0  0  0  0  0  0
  -10.7902  -26.2064   25.6556 N   0  0  0  0  0  0  0  0  0  0  0  0
  -10.1669  -25.0021   26.0840 C   0  0  0  0  0  0  0  0  0  0  0  0
   -9.0820  -24.5874   25.8819 O   0  0  0  0  0  0  0  0  0  0  0  0
  -10.8982  -24.0711   26.8758 C   0  0  0  0  0  0  0  0  0  0  0  0
  -11.8216  -23.1924   26.4092 C   0  0  0  0  0  0  0  0  0  0  0  0
  -11.9328  -22.0104   27.1299 C   0  0  0  0  0  0  0  0  0  0  0  0
  -11.4427  -21.8726   28.4027 C   0  0  0  0  0  0  0  0  0  0  0  0
  -10.4810  -22.6636   28.8003 N   0  0  0  0  0  0  0  0  0  0  0  0
  -10.1802  -23.6960   27.9999 C   0  0  0  0  0  0  0  0  0  0  0  0
   -7.7341  -33.2865   25.1281 H   0  0  0  0  0  0  0  0  0  0  0  0
   -8.7372  -34.1357   23.9887 H   0  0  0  0  0  0  0  0  0  0  0  0
   -9.5056  -33.6953   25.3272 H   0  0  0  0  0  0  0  0  0  0  0  0
  -12.6290  -33.1104   17.7101 H   0  0  0  0  0  0  0  0  0  0  0  0
  -13.2755  -35.3886   16.9455 H   0  0  0  0  0  0  0  0  0  0  0  0
  -13.3062  -37.2818   18.5339 H   0  0  0  0  0  0  0  0  0  0  0  0
  -12.7148  -36.9219   20.9253 H   0  0  0  0  0  0  0  0  0  0  0  0
   -9.8328  -27.6567   27.1458 H   0  0  0  0  0  0  0  0  0  0  0  0
   -9.5416  -29.3215   27.0810 H   0  0  0  0  0  0  0  0  0  0  0  0
  -11.0242  -28.3704   26.5908 H   0  0  0  0  0  0  0  0  0  0  0  0
   -9.4357  -26.8820   25.2556 H   0  0  0  0  0  0  0  0  0  0  0  0
  -11.7123  -26.2766   26.0899 H   0  0  0  0  0  0  0  0  0  0  0  0
  -12.3407  -23.2316   25.4678 H   0  0  0  0  0  0  0  0  0  0  0  0
  -12.4651  -21.2238   26.6687 H   0  0  0  0  0  0  0  0  0  0  0  0
  -11.7500  -21.1019   29.0955 H   0  0  0  0  0  0  0  0  0  0  0  0
   -9.3245  -24.2647   28.3135 H   0  0  0  0  0  0  0  0  0  0  0  0
  1  2  1  0
  2  3  2  0
  3  4  1  0
  4  5  1  0
  5  6  2  0
  6  7  1  0
  7  8  2  0
  8  9  1  0
  9 10  2  0
 10 11  1  0
 11 12  2  0
 12 13  1  0
  4 14  1  0
 14 15  2  0
 14 16  1  0
 16 17  2  3
 17 18  1  0
 17 19  1  0
 19 20  1  0
 20 21  1  0
 21 22  2  0
 21 23  1  0
 23 24  2  0
 24 25  1  0
 25 26  2  0
 26 27  1  0
 27 28  2  0
 16  2  1  0
 28 23  1  0
 13  5  1  0
 12  7  1  0
  1 29  1  0
  1 30  1  0
  1 31  1  0
  8 32  1  0
  9 33  1  0
 10 34  1  0
 11 35  1  0
 18 36  1  0
 18 37  1  0
 18 38  1  0
 19 39  1  0
 20 40  1  0
 24 41  1  0
 25 42  1  0
 26 43  1  0
 28 44  1  0
M  END
>  <Energy>  (1368) 
819.26067310477697

>  <compound_id>  (1368) 
6743

>  <target_id>  (1368) 
1

>  <reference_id>  (1368) 
68

>  <inspiration_ids>  (1368) 
[68, 82]

>  <energy_score>  (1368) 
599.5604858115539

>  <distance_score>  (1368) 
5.380464906781466

>  <path>  (1368) 
/opt/xchem-fragalysis-2/maxwin/BulkDock/SCRATCH/511018/C6743-P68/C6743-P68.minimised.mol

>  <scratch_subdir>  (1368) 
/opt/xchem-fragalysis-2/maxwin/BulkDock/SCRATCH/511018/C6743-P68

>  <fragmenstein_runtime>  (1368) 
17.37142515182495

>  <fragmenstein_outcome>  (1368) 
too moved

>  <fragmenstein_mode>  (1368) 
expansion

>  <fragmenstein_error>  (1368) 


$$$$
C6743-P82
     RDKit          3D

 44 47  0  0  0  0  0  0  0  0999 V2000
  -15.5927  -32.4552   26.6170 C   0  0  0  0  0  0  0  0  0  0  0  0
  -14.1663  -32.4752   26.1822 C   0  0  0  0  0  0  0  0  0  0  0  0
  -13.6188  -33.5222   25.6006 N   0  0  0  0  0  0  0  0  0  0  0  0
  -12.2850  -33.1909   25.3493 N   0  0  0  0  0  0  0  0  0  0  0  0
  -11.3327  -34.1027   24.8366 C   0  0  0  0  0  0  0  0  0  0  0  0
  -11.3347  -35.4116   24.9648 N   0  0  0  0  0  0  0  0  0  0  0  0
  -10.2714  -35.9596   24.2722 C   0  0  0  0  0  0  0  0  0  0  0  0
   -9.9344  -37.3167   24.2519 C   0  0  0  0  0  0  0  0  0  0  0  0
   -8.8777  -37.7277   23.4462 C   0  0  0  0  0  0  0  0  0  0  0  0
   -8.1619  -36.8145   22.6758 C   0  0  0  0  0  0  0  0  0  0  0  0
   -8.4581  -35.4587   22.7031 C   0  0  0  0  0  0  0  0  0  0  0  0
   -9.5154  -35.0642   23.5213 C   0  0  0  0  0  0  0  0  0  0  0  0
  -10.0992  -33.4939   23.8032 S   0  0  0  0  0  0  0  0  0  0  0  0
  -11.9408  -31.9883   25.9691 C   0  0  0  0  0  0  0  0  0  0  0  0
  -10.8691  -31.4623   26.2145 O   0  0  0  0  0  0  0  0  0  0  0  0
  -13.2267  -31.3328   26.3423 C   0  0  0  0  0  0  0  0  0  0  0  0
  -13.3105  -29.9997   26.6505 C   0  0  0  0  0  0  0  0  0  0  0  0
  -14.6333  -29.3638   26.9943 C   0  0  0  0  0  0  0  0  0  0  0  0
  -12.2152  -29.0894   26.5304 N   0  0  0  0  0  0  0  0  0  0  0  0
  -11.9575  -27.9548   27.3251 N   0  0  0  0  0  0  0  0  0  0  0  0
  -12.0646  -27.7553   28.8459 C   0  0  0  0  0  0  0  0  0  0  0  0
  -12.4573  -28.4737   29.6765 O   0  0  0  0  0  0  0  0  0  0  0  0
  -11.4839  -26.4731   29.4143 C   0  0  0  0  0  0  0  0  0  0  0  0
  -12.0921  -25.2309   29.2711 C   0  0  0  0  0  0  0  0  0  0  0  0
  -11.8851  -24.2366   30.2447 C   0  0  0  0  0  0  0  0  0  0  0  0
  -11.0342  -24.4895   31.3061 C   0  0  0  0  0  0  0  0  0  0  0  0
  -10.3310  -25.6234   31.4155 N   0  0  0  0  0  0  0  0  0  0  0  0
  -10.5956  -26.5896   30.4939 C   0  0  0  0  0  0  0  0  0  0  0  0
  -15.9541  -33.4799   26.7439 H   0  0  0  0  0  0  0  0  0  0  0  0
  -15.6960  -31.9348   27.5718 H   0  0  0  0  0  0  0  0  0  0  0  0
  -16.2000  -31.9621   25.8537 H   0  0  0  0  0  0  0  0  0  0  0  0
  -10.5071  -38.0297   24.8351 H   0  0  0  0  0  0  0  0  0  0  0  0
   -8.6129  -38.7825   23.4094 H   0  0  0  0  0  0  0  0  0  0  0  0
   -7.3393  -37.1656   22.0546 H   0  0  0  0  0  0  0  0  0  0  0  0
   -7.8754  -34.7391   22.1348 H   0  0  0  0  0  0  0  0  0  0  0  0
  -15.4531  -29.7829   26.4057 H   0  0  0  0  0  0  0  0  0  0  0  0
  -14.8511  -29.4937   28.0585 H   0  0  0  0  0  0  0  0  0  0  0  0
  -14.6299  -28.2902   26.7755 H   0  0  0  0  0  0  0  0  0  0  0  0
  -11.3317  -29.6339   26.5047 H   0  0  0  0  0  0  0  0  0  0  0  0
  -11.4901  -27.1509   26.9091 H   0  0  0  0  0  0  0  0  0  0  0  0
  -12.8360  -25.0654   28.5009 H   0  0  0  0  0  0  0  0  0  0  0  0
  -12.4356  -23.3027   30.1962 H   0  0  0  0  0  0  0  0  0  0  0  0
  -10.8877  -23.7647   32.1001 H   0  0  0  0  0  0  0  0  0  0  0  0
  -10.1155  -27.5338   30.7360 H   0  0  0  0  0  0  0  0  0  0  0  0
  1  2  1  0
  2  3  2  0
  3  4  1  0
  4  5  1  0
  5  6  2  0
  6  7  1  0
  7  8  2  0
  8  9  1  0
  9 10  2  0
 10 11  1  0
 11 12  2  0
 12 13  1  0
  4 14  1  0
 14 15  2  0
 14 16  1  0
 16 17  2  3
 17 18  1  0
 17 19  1  0
 19 20  1  0
 20 21  1  0
 21 22  2  0
 21 23  1  0
 23 24  2  0
 24 25  1  0
 25 26  2  0
 26 27  1  0
 27 28  2  0
 16  2  1  0
 28 23  1  0
 13  5  1  0
 12  7  1  0
  1 29  1  0
  1 30  1  0
  1 31  1  0
  8 32  1  0
  9 33  1  0
 10 34  1  0
 11 35  1  0
 18 36  1  0
 18 37  1  0
 18 38  1  0
 19 39  1  0
 20 40  1  0
 24 41  1  0
 25 42  1  0
 26 43  1  0
 28 44  1  0
M  END
>  <Energy>  (1369) 
181.88451255240489

>  <compound_id>  (1369) 
6743

>  <target_id>  (1369) 
1

>  <reference_id>  (1369) 
82

>  <inspiration_ids>  (1369) 
[68, 82]

>  <energy_score>  (1369) 
-29.967966278717995

>  <distance_score>  (1369) 
3.3388261056259627

>  <path>  (1369) 
/opt/xchem-fragalysis-2/maxwin/BulkDock/SCRATCH/511018/C6743-P82/C6743-P82.minimised.mol

>  <scratch_subdir>  (1369) 
/opt/xchem-fragalysis-2/maxwin/BulkDock/SCRATCH/511018/C6743-P82

>  <fragmenstein_runtime>  (1369) 
8.387708187103271

>  <fragmenstein_outcome>  (1369) 
too moved

>  <fragmenstein_mode>  (1369) 
expansion

>  <fragmenstein_error>  (1369) 


$$$$
C6744-P68
     RDKit          3D

 33 35  0  0  0  0  0  0  0  0999 V2000
  -12.6700  -37.2585   22.6838 C   0  0  0  0  0  0  0  0  0  0  0  0
  -12.7510  -35.9757   23.4335 C   0  0  0  0  0  0  0  0  0  0  0  0
  -13.8767  -35.3937   23.7935 N   0  0  0  0  0  0  0  0  0  0  0  0
  -13.6115  -34.2106   24.4593 C   0  0  0  0  0  0  0  0  0  0  0  0
  -14.5167  -33.3030   25.0224 C   0  0  0  0  0  0  0  0  0  0  0  0
  -14.0420  -32.1223   25.6727 C   0  0  0  0  0  0  0  0  0  0  0  0
  -12.6773  -31.6883   25.7894 C   0  0  0  0  0  0  0  0  0  0  0  0
  -12.6933  -30.5071   26.8067 N   0  0  0  0  0  0  0  0  0  0  0  0
  -11.3002  -29.2833   27.4061 C   0  0  0  0  0  0  0  0  0  0  0  0
  -10.1409  -29.1437   27.0202 O   0  0  0  0  0  0  0  0  0  0  0  0
  -11.6992  -28.1849   28.9890 C   0  0  0  0  0  0  0  0  0  0  0  0
  -12.5959  -27.2844   28.6159 F   0  0  0  0  0  0  0  0  0  0  0  0
  -10.4817  -27.5044   28.8129 F   0  0  0  0  0  0  0  0  0  0  0  0
  -12.0254  -28.6845   30.8698 C   0  0  0  0  0  0  0  0  0  0  0  0
  -11.6009  -28.1200   32.0579 C   0  0  0  0  0  0  0  0  0  0  0  0
  -12.1738  -28.3415   33.4308 C   0  0  0  0  0  0  0  0  0  0  0  0
  -12.8738  -29.4509   33.7505 C   0  0  0  0  0  0  0  0  0  0  0  0
  -13.2804  -30.1531   32.7438 N   0  0  0  0  0  0  0  0  0  0  0  0
  -13.0334  -29.5179   31.5374 C   0  0  0  0  0  0  0  0  0  0  0  0
  -11.8519  -32.7558   25.3180 C   0  0  0  0  0  0  0  0  0  0  0  0
  -12.2755  -33.9170   24.6145 C   0  0  0  0  0  0  0  0  0  0  0  0
  -11.3163  -35.1580   23.8940 S   0  0  0  0  0  0  0  0  0  0  0  0
  -12.1392  -38.0174   23.2672 H   0  0  0  0  0  0  0  0  0  0  0  0
  -12.1511  -37.1200   21.7300 H   0  0  0  0  0  0  0  0  0  0  0  0
  -13.6735  -37.6396   22.4690 H   0  0  0  0  0  0  0  0  0  0  0  0
  -15.5824  -33.5065   24.9678 H   0  0  0  0  0  0  0  0  0  0  0  0
  -14.8357  -31.4994   26.0935 H   0  0  0  0  0  0  0  0  0  0  0  0
  -13.5536  -30.3280   27.2557 H   0  0  0  0  0  0  0  0  0  0  0  0
  -10.8749  -27.3570   32.0840 H   0  0  0  0  0  0  0  0  0  0  0  0
  -11.9408  -27.6899   34.2521 H   0  0  0  0  0  0  0  0  0  0  0  0
  -13.1469  -29.7374   34.7546 H   0  0  0  0  0  0  0  0  0  0  0  0
  -14.0811  -29.3411   31.2551 H   0  0  0  0  0  0  0  0  0  0  0  0
  -10.7929  -32.7805   25.3916 H   0  0  0  0  0  0  0  0  0  0  0  0
  1  2  1  0
  2  3  2  0
  3  4  1  0
  4  5  2  0
  5  6  1  0
  6  7  2  0
  7  8  1  0
  8  9  1  0
  9 10  2  0
  9 11  1  0
 11 12  1  0
 11 13  1  0
 11 14  1  0
 14 15  2  0
 15 16  1  0
 16 17  2  0
 17 18  1  0
 18 19  2  0
  7 20  1  0
 20 21  2  0
 21 22  1  0
 22  2  1  0
 21  4  1  0
 19 14  1  0
  1 23  1  0
  1 24  1  0
  1 25  1  0
  5 26  1  0
  6 27  1  0
  8 28  1  0
 15 29  1  0
 16 30  1  0
 17 31  1  0
 19 32  1  0
 20 33  1  0
M  END
>  <Energy>  (1370) 
436.64738226891808

>  <compound_id>  (1370) 
6744

>  <target_id>  (1370) 
1

>  <reference_id>  (1370) 
68

>  <inspiration_ids>  (1370) 
[68, 82]

>  <energy_score>  (1370) 
276.3466971456962

>  <distance_score>  (1370) 
5.1265198133342285

>  <path>  (1370) 
/opt/xchem-fragalysis-2/maxwin/BulkDock/SCRATCH/511018/C6744-P68/C6744-P68.minimised.mol

>  <scratch_subdir>  (1370) 
/opt/xchem-fragalysis-2/maxwin/BulkDock/SCRATCH/511018/C6744-P68

>  <fragmenstein_runtime>  (1370) 
11.262334108352661

>  <fragmenstein_outcome>  (1370) 
too moved

>  <fragmenstein_mode>  (1370) 
expansion

>  <fragmenstein_error>  (1370) 


$$$$
C6744-P82
     RDKit          3D

 33 35  0  0  0  0  0  0  0  0999 V2000
   -8.6365  -37.0643   22.7190 C   0  0  0  0  0  0  0  0  0  0  0  0
   -9.5158  -36.0527   23.3621 C   0  0  0  0  0  0  0  0  0  0  0  0
  -10.6979  -36.3049   23.8839 N   0  0  0  0  0  0  0  0  0  0  0  0
  -11.2595  -35.1358   24.3982 C   0  0  0  0  0  0  0  0  0  0  0  0
  -12.5359  -34.9486   24.9787 C   0  0  0  0  0  0  0  0  0  0  0  0
  -12.9600  -33.6852   25.5301 C   0  0  0  0  0  0  0  0  0  0  0  0
  -12.1117  -32.5781   25.6486 C   0  0  0  0  0  0  0  0  0  0  0  0
  -12.5508  -31.3678   26.4494 N   0  0  0  0  0  0  0  0  0  0  0  0
  -11.7956  -29.9631   26.7245 C   0  0  0  0  0  0  0  0  0  0  0  0
  -10.7741  -29.5491   26.2960 O   0  0  0  0  0  0  0  0  0  0  0  0
  -12.6560  -28.9229   27.7090 C   0  0  0  0  0  0  0  0  0  0  0  0
  -12.9004  -29.5935   28.8677 F   0  0  0  0  0  0  0  0  0  0  0  0
  -13.9062  -28.7699   27.1540 F   0  0  0  0  0  0  0  0  0  0  0  0
  -12.0785  -27.4939   28.1497 C   0  0  0  0  0  0  0  0  0  0  0  0
  -12.2740  -26.3299   27.4050 C   0  0  0  0  0  0  0  0  0  0  0  0
  -11.9204  -25.0720   27.9264 C   0  0  0  0  0  0  0  0  0  0  0  0
  -11.3647  -24.9859   29.1913 C   0  0  0  0  0  0  0  0  0  0  0  0
  -11.1305  -26.0585   29.9515 N   0  0  0  0  0  0  0  0  0  0  0  0
  -11.5156  -27.2483   29.4232 C   0  0  0  0  0  0  0  0  0  0  0  0
  -10.8371  -32.8152   25.0616 C   0  0  0  0  0  0  0  0  0  0  0  0
  -10.4442  -34.0159   24.3612 C   0  0  0  0  0  0  0  0  0  0  0  0
   -9.0415  -34.4082   23.4169 S   0  0  0  0  0  0  0  0  0  0  0  0
   -8.4954  -36.8387   21.6572 H   0  0  0  0  0  0  0  0  0  0  0  0
   -9.0815  -38.0615   22.7958 H   0  0  0  0  0  0  0  0  0  0  0  0
   -7.6565  -37.0949   23.2060 H   0  0  0  0  0  0  0  0  0  0  0  0
  -13.2197  -35.7940   25.0060 H   0  0  0  0  0  0  0  0  0  0  0  0
  -13.9623  -33.6436   25.9541 H   0  0  0  0  0  0  0  0  0  0  0  0
  -13.4530  -31.3681   26.9158 H   0  0  0  0  0  0  0  0  0  0  0  0
  -12.7278  -26.3791   26.4171 H   0  0  0  0  0  0  0  0  0  0  0  0
  -12.0949  -24.1670   27.3509 H   0  0  0  0  0  0  0  0  0  0  0  0
  -11.1061  -24.0275   29.6275 H   0  0  0  0  0  0  0  0  0  0  0  0
  -11.3912  -28.0359   30.1488 H   0  0  0  0  0  0  0  0  0  0  0  0
  -10.0413  -32.0870   25.2344 H   0  0  0  0  0  0  0  0  0  0  0  0
  1  2  1  0
  2  3  2  0
  3  4  1  0
  4  5  2  0
  5  6  1  0
  6  7  2  0
  7  8  1  0
  8  9  1  0
  9 10  2  0
  9 11  1  0
 11 12  1  0
 11 13  1  0
 11 14  1  0
 14 15  2  0
 15 16  1  0
 16 17  2  0
 17 18  1  0
 18 19  2  0
  7 20  1  0
 20 21  2  0
 21 22  1  0
 22  2  1  0
 21  4  1  0
 19 14  1  0
  1 23  1  0
  1 24  1  0
  1 25  1  0
  5 26  1  0
  6 27  1  0
  8 28  1  0
 15 29  1  0
 16 30  1  0
 17 31  1  0
 19 32  1  0
 20 33  1  0
M  END
>  <Energy>  (1371) 
142.97069462952797

>  <compound_id>  (1371) 
6744

>  <target_id>  (1371) 
1

>  <reference_id>  (1371) 
82

>  <inspiration_ids>  (1371) 
[68, 82]

>  <energy_score>  (1371) 
10.3408590310014

>  <distance_score>  (1371) 
3.9222661100854594

>  <path>  (1371) 
/opt/xchem-fragalysis-2/maxwin/BulkDock/SCRATCH/511018/C6744-P82/C6744-P82.minimised.mol

>  <scratch_subdir>  (1371) 
/opt/xchem-fragalysis-2/maxwin/BulkDock/SCRATCH/511018/C6744-P82

>  <fragmenstein_runtime>  (1371) 
2.665720224380493

>  <fragmenstein_outcome>  (1371) 
too moved

>  <fragmenstein_mode>  (1371) 
expansion

>  <fragmenstein_error>  (1371) 


$$$$
C6745-P68
     RDKit          3D

 39 41  0  0  0  0  0  0  0  0999 V2000
  -10.1394  -29.4824   27.7135 C   0  0  0  0  0  0  0  0  0  0  0  0
  -11.5353  -29.2984   27.1639 N   0  0  0  0  0  0  0  0  0  0  0  0
  -11.5317  -28.2222   28.7724 C   0  0  0  0  0  0  0  0  0  0  0  0
  -12.0414  -28.6247   30.6544 C   0  0  0  0  0  0  0  0  0  0  0  0
  -13.0697  -29.3722   31.5513 C   0  0  0  0  0  0  0  0  0  0  0  0
  -13.1783  -29.4982   32.9686 C   0  0  0  0  0  0  0  0  0  0  0  0
  -12.5635  -28.5074   33.6279 C   0  0  0  0  0  0  0  0  0  0  0  0
  -11.7764  -27.7167   32.9070 N   0  0  0  0  0  0  0  0  0  0  0  0
  -11.3077  -28.2121   31.6962 C   0  0  0  0  0  0  0  0  0  0  0  0
  -12.6413  -30.8600   26.7258 C   0  0  0  0  0  0  0  0  0  0  0  0
  -13.3996  -31.3594   27.5311 O   0  0  0  0  0  0  0  0  0  0  0  0
  -12.6164  -31.7863   25.4034 C   0  0  0  0  0  0  0  0  0  0  0  0
  -13.5571  -33.0647   25.4046 C   0  0  0  0  0  0  0  0  0  0  0  0
  -12.8229  -34.3442   24.9201 C   0  0  0  0  0  0  0  0  0  0  0  0
  -13.2758  -35.5864   25.3763 C   0  0  0  0  0  0  0  0  0  0  0  0
  -12.5674  -36.7696   25.1024 C   0  0  0  0  0  0  0  0  0  0  0  0
  -11.3752  -36.7310   24.3518 C   0  0  0  0  0  0  0  0  0  0  0  0
  -10.5497  -37.8066   24.0666 N   0  0  0  0  0  0  0  0  0  0  0  0
   -9.5177  -37.3961   23.3649 C   0  0  0  0  0  0  0  0  0  0  0  0
   -9.4940  -35.7343   22.9537 S   0  0  0  0  0  0  0  0  0  0  0  0
  -10.9589  -35.5046   23.8392 C   0  0  0  0  0  0  0  0  0  0  0  0
  -11.6820  -34.3174   24.0806 C   0  0  0  0  0  0  0  0  0  0  0  0
   -9.4576  -28.8143   28.2693 H   0  0  0  0  0  0  0  0  0  0  0  0
   -9.7995  -30.4984   27.6919 H   0  0  0  0  0  0  0  0  0  0  0  0
   -9.6794  -29.0169   26.8530 H   0  0  0  0  0  0  0  0  0  0  0  0
  -12.4277  -27.6491   28.7521 H   0  0  0  0  0  0  0  0  0  0  0  0
  -10.6128  -27.6075   28.7188 H   0  0  0  0  0  0  0  0  0  0  0  0
  -14.1102  -29.5898   31.2823 H   0  0  0  0  0  0  0  0  0  0  0  0
  -13.9511  -30.0869   33.4424 H   0  0  0  0  0  0  0  0  0  0  0  0
  -12.7332  -28.2550   34.6640 H   0  0  0  0  0  0  0  0  0  0  0  0
  -10.7001  -29.0702   31.9611 H   0  0  0  0  0  0  0  0  0  0  0  0
  -12.4641  -31.8037   24.3203 H   0  0  0  0  0  0  0  0  0  0  0  0
  -11.7164  -32.3357   25.7287 H   0  0  0  0  0  0  0  0  0  0  0  0
  -13.9578  -33.2641   26.4032 H   0  0  0  0  0  0  0  0  0  0  0  0
  -14.4112  -32.8839   24.7409 H   0  0  0  0  0  0  0  0  0  0  0  0
  -14.1702  -35.6483   25.9950 H   0  0  0  0  0  0  0  0  0  0  0  0
  -12.9166  -37.7220   25.4903 H   0  0  0  0  0  0  0  0  0  0  0  0
   -8.7297  -38.0695   23.0528 H   0  0  0  0  0  0  0  0  0  0  0  0
  -11.2959  -33.3962   23.6589 H   0  0  0  0  0  0  0  0  0  0  0  0
  1  2  1  0
  2  3  1  0
  3  4  1  0
  4  5  2  0
  5  6  1  0
  6  7  2  0
  7  8  1  0
  8  9  2  0
  2 10  1  0
 10 11  2  0
 10 12  1  0
 12 13  1  0
 13 14  1  0
 14 15  2  0
 15 16  1  0
 16 17  2  0
 17 18  1  0
 18 19  2  0
 19 20  1  0
 20 21  1  0
 21 22  2  0
  9  4  1  0
 22 14  1  0
 21 17  1  0
  1 23  1  0
  1 24  1  0
  1 25  1  0
  3 26  1  0
  3 27  1  0
  5 28  1  0
  6 29  1  0
  7 30  1  0
  9 31  1  0
 12 32  1  0
 12 33  1  0
 13 34  1  0
 13 35  1  0
 15 36  1  0
 16 37  1  0
 19 38  1  0
 22 39  1  0
M  END
>  <Energy>  (1372) 
532.12134658500872

>  <compound_id>  (1372) 
6745

>  <target_id>  (1372) 
1

>  <reference_id>  (1372) 
68

>  <inspiration_ids>  (1372) 
[68, 82]

>  <energy_score>  (1372) 
447.38950476113973

>  <distance_score>  (1372) 
4.122035178280362

>  <path>  (1372) 
/opt/xchem-fragalysis-2/maxwin/BulkDock/SCRATCH/511018/C6745-P68/C6745-P68.minimised.mol

>  <scratch_subdir>  (1372) 
/opt/xchem-fragalysis-2/maxwin/BulkDock/SCRATCH/511018/C6745-P68

>  <fragmenstein_runtime>  (1372) 
7.7367072105407715

>  <fragmenstein_outcome>  (1372) 
too moved

>  <fragmenstein_mode>  (1372) 
expansion

>  <fragmenstein_error>  (1372) 


$$$$
C6745-P82
     RDKit          3D

 39 41  0  0  0  0  0  0  0  0999 V2000
  -11.7671  -27.6953   25.8668 C   0  0  0  0  0  0  0  0  0  0  0  0
  -13.1821  -27.8057   26.3597 N   0  0  0  0  0  0  0  0  0  0  0  0
  -12.9211  -26.3457   26.7537 C   0  0  0  0  0  0  0  0  0  0  0  0
  -12.1554  -25.8356   27.9703 C   0  0  0  0  0  0  0  0  0  0  0  0
  -12.0586  -24.4502   28.1545 C   0  0  0  0  0  0  0  0  0  0  0  0
  -11.5191  -23.9276   29.3262 C   0  0  0  0  0  0  0  0  0  0  0  0
  -11.0262  -24.8051   30.2722 C   0  0  0  0  0  0  0  0  0  0  0  0
  -11.0143  -26.1355   30.1039 N   0  0  0  0  0  0  0  0  0  0  0  0
  -11.6001  -26.6069   28.9798 C   0  0  0  0  0  0  0  0  0  0  0  0
  -13.3381  -28.9881   27.1717 C   0  0  0  0  0  0  0  0  0  0  0  0
  -13.2137  -29.1437   28.3598 O   0  0  0  0  0  0  0  0  0  0  0  0
  -13.8406  -30.1617   26.2906 C   0  0  0  0  0  0  0  0  0  0  0  0
  -13.0547  -31.4547   26.5659 C   0  0  0  0  0  0  0  0  0  0  0  0
  -12.9896  -32.5808   25.5337 C   0  0  0  0  0  0  0  0  0  0  0  0
  -14.1102  -33.2798   25.0993 C   0  0  0  0  0  0  0  0  0  0  0  0
  -13.9779  -34.4232   24.2782 C   0  0  0  0  0  0  0  0  0  0  0  0
  -12.7065  -34.8949   23.8754 C   0  0  0  0  0  0  0  0  0  0  0  0
  -12.4317  -36.0095   23.0961 N   0  0  0  0  0  0  0  0  0  0  0  0
  -11.1316  -36.1291   22.9364 C   0  0  0  0  0  0  0  0  0  0  0  0
  -10.1628  -34.9311   23.6808 S   0  0  0  0  0  0  0  0  0  0  0  0
  -11.5888  -34.1841   24.2967 C   0  0  0  0  0  0  0  0  0  0  0  0
  -11.7253  -33.0476   25.1111 C   0  0  0  0  0  0  0  0  0  0  0  0
  -10.9821  -27.3075   26.5212 H   0  0  0  0  0  0  0  0  0  0  0  0
  -11.4276  -28.7140   25.6959 H   0  0  0  0  0  0  0  0  0  0  0  0
  -11.7519  -27.2167   24.8799 H   0  0  0  0  0  0  0  0  0  0  0  0
  -13.9501  -26.0599   27.0046 H   0  0  0  0  0  0  0  0  0  0  0  0
  -12.7306  -25.7107   25.8688 H   0  0  0  0  0  0  0  0  0  0  0  0
  -12.4604  -23.7588   27.4160 H   0  0  0  0  0  0  0  0  0  0  0  0
  -11.5077  -22.8581   29.4977 H   0  0  0  0  0  0  0  0  0  0  0  0
  -10.6143  -24.4549   31.2125 H   0  0  0  0  0  0  0  0  0  0  0  0
  -11.6181  -27.6829   28.9430 H   0  0  0  0  0  0  0  0  0  0  0  0
  -14.9012  -30.3154   26.5242 H   0  0  0  0  0  0  0  0  0  0  0  0
  -13.8065  -29.8658   25.2482 H   0  0  0  0  0  0  0  0  0  0  0  0
  -12.0260  -31.1711   26.8249 H   0  0  0  0  0  0  0  0  0  0  0  0
  -13.4636  -31.8946   27.4856 H   0  0  0  0  0  0  0  0  0  0  0  0
  -15.1058  -32.9830   25.4234 H   0  0  0  0  0  0  0  0  0  0  0  0
  -14.8617  -34.9724   23.9648 H   0  0  0  0  0  0  0  0  0  0  0  0
  -10.6931  -36.9352   22.3625 H   0  0  0  0  0  0  0  0  0  0  0  0
  -10.8305  -32.5307   25.4317 H   0  0  0  0  0  0  0  0  0  0  0  0
  1  2  1  0
  2  3  1  0
  3  4  1  0
  4  5  2  0
  5  6  1  0
  6  7  2  0
  7  8  1  0
  8  9  2  0
  2 10  1  0
 10 11  2  0
 10 12  1  0
 12 13  1  0
 13 14  1  0
 14 15  2  0
 15 16  1  0
 16 17  2  0
 17 18  1  0
 18 19  2  0
 19 20  1  0
 20 21  1  0
 21 22  2  0
  9  4  1  0
 22 14  1  0
 21 17  1  0
  1 23  1  0
  1 24  1  0
  1 25  1  0
  3 26  1  0
  3 27  1  0
  5 28  1  0
  6 29  1  0
  7 30  1  0
  9 31  1  0
 12 32  1  0
 12 33  1  0
 13 34  1  0
 13 35  1  0
 15 36  1  0
 16 37  1  0
 19 38  1  0
 22 39  1  0
M  END
>  <Energy>  (1373) 
112.17364538282789

>  <compound_id>  (1373) 
6745

>  <target_id>  (1373) 
1

>  <reference_id>  (1373) 
82

>  <inspiration_ids>  (1373) 
[68, 82]

>  <energy_score>  (1373) 
27.441803558962647

>  <distance_score>  (1373) 
4.080370171618067

>  <path>  (1373) 
/opt/xchem-fragalysis-2/maxwin/BulkDock/SCRATCH/511018/C6745-P82/C6745-P82.minimised.mol

>  <scratch_subdir>  (1373) 
/opt/xchem-fragalysis-2/maxwin/BulkDock/SCRATCH/511018/C6745-P82

>  <fragmenstein_runtime>  (1373) 
4.67085337638855

>  <fragmenstein_outcome>  (1373) 
too moved

>  <fragmenstein_mode>  (1373) 
expansion

>  <fragmenstein_error>  (1373) 


$$$$
C6747-P68
     RDKit          3D

 37 40  0  0  0  0  0  0  0  0999 V2000
  -11.0132  -34.6709   23.1638 C   0  0  0  0  0  0  0  0  0  0  0  0
  -11.7023  -34.3055   22.0164 C   0  0  0  0  0  0  0  0  0  0  0  0
  -11.5489  -33.0265   21.4709 C   0  0  0  0  0  0  0  0  0  0  0  0
  -10.6845  -32.1137   22.1079 C   0  0  0  0  0  0  0  0  0  0  0  0
  -10.3374  -30.5155   21.6299 S   0  0  0  0  0  0  0  0  0  0  0  0
   -8.9550  -29.9895   23.3904 C   0  0  0  0  0  0  0  0  0  0  0  0
   -9.1588  -28.4821   24.6658 N   0  0  0  0  0  0  0  0  0  0  0  0
  -10.3770  -27.4426   24.6917 C   0  0  0  0  0  0  0  0  0  0  0  0
  -10.9229  -26.4434   25.6176 C   0  0  0  0  0  0  0  0  0  0  0  0
  -10.2111  -26.1194   26.7427 N   0  0  0  0  0  0  0  0  0  0  0  0
  -10.5084  -24.7249   26.9797 C   0  0  0  0  0  0  0  0  0  0  0  0
   -9.9495  -23.9391   27.9544 C   0  0  0  0  0  0  0  0  0  0  0  0
  -10.5886  -22.7275   28.3192 C   0  0  0  0  0  0  0  0  0  0  0  0
  -11.4809  -22.0545   27.5921 N   0  0  0  0  0  0  0  0  0  0  0  0
  -11.9771  -22.7545   26.5936 C   0  0  0  0  0  0  0  0  0  0  0  0
  -11.6690  -24.0844   26.4382 C   0  0  0  0  0  0  0  0  0  0  0  0
  -10.3051  -27.4750   27.3900 C   0  0  0  0  0  0  0  0  0  0  0  0
   -9.6740  -28.7104   26.5537 C   0  0  0  0  0  0  0  0  0  0  0  0
   -9.0967  -31.4522   23.7247 N   0  0  0  0  0  0  0  0  0  0  0  0
   -9.9885  -32.4602   23.2242 C   0  0  0  0  0  0  0  0  0  0  0  0
  -10.1526  -33.7574   23.7725 C   0  0  0  0  0  0  0  0  0  0  0  0
  -11.1257  -35.6691   23.5782 H   0  0  0  0  0  0  0  0  0  0  0  0
  -12.3603  -35.0205   21.5272 H   0  0  0  0  0  0  0  0  0  0  0  0
  -12.0776  -32.7465   20.5632 H   0  0  0  0  0  0  0  0  0  0  0  0
  -11.2627  -27.9882   24.9846 H   0  0  0  0  0  0  0  0  0  0  0  0
  -10.4848  -27.1310   23.6991 H   0  0  0  0  0  0  0  0  0  0  0  0
  -10.8436  -25.5781   25.0947 H   0  0  0  0  0  0  0  0  0  0  0  0
  -12.0000  -26.5896   25.8394 H   0  0  0  0  0  0  0  0  0  0  0  0
   -9.2131  -24.3678   28.5891 H   0  0  0  0  0  0  0  0  0  0  0  0
  -10.4437  -22.2221   29.2528 H   0  0  0  0  0  0  0  0  0  0  0  0
  -12.7386  -22.2904   25.9869 H   0  0  0  0  0  0  0  0  0  0  0  0
  -12.4842  -24.6344   25.9824 H   0  0  0  0  0  0  0  0  0  0  0  0
  -11.3328  -27.7907   27.4068 H   0  0  0  0  0  0  0  0  0  0  0  0
  -10.0310  -27.5163   28.4360 H   0  0  0  0  0  0  0  0  0  0  0  0
  -10.2383  -29.5641   26.9365 H   0  0  0  0  0  0  0  0  0  0  0  0
   -8.7622  -29.0189   27.0686 H   0  0  0  0  0  0  0  0  0  0  0  0
   -9.5880  -34.0334   24.6581 H   0  0  0  0  0  0  0  0  0  0  0  0
  1  2  2  0
  2  3  1  0
  3  4  2  0
  4  5  1  0
  5  6  1  0
  6  7  1  0
  7  8  1  0
  8  9  1  0
  9 10  1  0
 10 11  1  0
 11 12  2  0
 12 13  1  0
 13 14  2  0
 14 15  1  0
 15 16  2  0
 10 17  1  0
 17 18  1  0
  6 19  2  0
 19 20  1  0
 20 21  2  0
 21  1  1  0
 20  4  1  0
 18  7  1  0
 16 11  1  0
  1 22  1  0
  2 23  1  0
  3 24  1  0
  8 25  1  0
  8 26  1  0
  9 27  1  0
  9 28  1  0
 12 29  1  0
 13 30  1  0
 15 31  1  0
 16 32  1  0
 17 33  1  0
 17 34  1  0
 18 35  1  0
 18 36  1  0
 21 37  1  0
M  END
>  <Energy>  (1374) 
565.69674557771566

>  <compound_id>  (1374) 
6747

>  <target_id>  (1374) 
1

>  <reference_id>  (1374) 
68

>  <inspiration_ids>  (1374) 
[68, 82]

>  <energy_score>  (1374) 
412.0952840057737

>  <distance_score>  (1374) 
4.910349611502711

>  <path>  (1374) 
/opt/xchem-fragalysis-2/maxwin/BulkDock/SCRATCH/511018/C6747-P68/C6747-P68.minimised.mol

>  <scratch_subdir>  (1374) 
/opt/xchem-fragalysis-2/maxwin/BulkDock/SCRATCH/511018/C6747-P68

>  <fragmenstein_runtime>  (1374) 
7.892051458358765

>  <fragmenstein_outcome>  (1374) 
too moved

>  <fragmenstein_mode>  (1374) 
expansion

>  <fragmenstein_error>  (1374) 


$$$$
C6747-P82
     RDKit          3D

 37 40  0  0  0  0  0  0  0  0999 V2000
   -9.9559  -35.1309   23.2383 C   0  0  0  0  0  0  0  0  0  0  0  0
  -11.1780  -35.7581   23.0669 C   0  0  0  0  0  0  0  0  0  0  0  0
  -12.3303  -35.2445   23.6662 C   0  0  0  0  0  0  0  0  0  0  0  0
  -12.2192  -34.0963   24.4703 C   0  0  0  0  0  0  0  0  0  0  0  0
  -13.4374  -33.1747   25.2879 S   0  0  0  0  0  0  0  0  0  0  0  0
  -12.2953  -32.0019   25.8928 C   0  0  0  0  0  0  0  0  0  0  0  0
  -12.5731  -30.7998   26.6389 N   0  0  0  0  0  0  0  0  0  0  0  0
  -13.3248  -30.8412   27.9015 C   0  0  0  0  0  0  0  0  0  0  0  0
  -13.1517  -29.5431   28.8134 C   0  0  0  0  0  0  0  0  0  0  0  0
  -12.5848  -28.2302   28.2445 N   0  0  0  0  0  0  0  0  0  0  0  0
  -11.9326  -27.1342   28.8988 C   0  0  0  0  0  0  0  0  0  0  0  0
  -11.2042  -27.2010   30.0962 C   0  0  0  0  0  0  0  0  0  0  0  0
  -10.6504  -26.0845   30.7365 C   0  0  0  0  0  0  0  0  0  0  0  0
  -10.7699  -24.8451   30.2672 N   0  0  0  0  0  0  0  0  0  0  0  0
  -11.4618  -24.7476   29.1154 C   0  0  0  0  0  0  0  0  0  0  0  0
  -12.0192  -25.8239   28.4086 C   0  0  0  0  0  0  0  0  0  0  0  0
  -12.4332  -28.2471   26.7657 C   0  0  0  0  0  0  0  0  0  0  0  0
  -13.0120  -29.4952   26.0384 C   0  0  0  0  0  0  0  0  0  0  0  0
  -11.0711  -32.3575   25.5233 N   0  0  0  0  0  0  0  0  0  0  0  0
  -11.0043  -33.4811   24.6873 C   0  0  0  0  0  0  0  0  0  0  0  0
   -9.8688  -33.9845   24.0239 C   0  0  0  0  0  0  0  0  0  0  0  0
   -9.0694  -35.4999   22.7274 H   0  0  0  0  0  0  0  0  0  0  0  0
  -11.2465  -36.6428   22.4379 H   0  0  0  0  0  0  0  0  0  0  0  0
  -13.2935  -35.7193   23.5072 H   0  0  0  0  0  0  0  0  0  0  0  0
  -13.1508  -31.7242   28.5045 H   0  0  0  0  0  0  0  0  0  0  0  0
  -14.3950  -30.9284   27.6561 H   0  0  0  0  0  0  0  0  0  0  0  0
  -12.7133  -29.8031   29.7784 H   0  0  0  0  0  0  0  0  0  0  0  0
  -14.2016  -29.3493   29.0633 H   0  0  0  0  0  0  0  0  0  0  0  0
  -11.0399  -28.1309   30.6166 H   0  0  0  0  0  0  0  0  0  0  0  0
  -10.0931  -26.1950   31.6613 H   0  0  0  0  0  0  0  0  0  0  0  0
  -11.5838  -23.7343   28.7400 H   0  0  0  0  0  0  0  0  0  0  0  0
  -12.5735  -25.5894   27.5082 H   0  0  0  0  0  0  0  0  0  0  0  0
  -11.3767  -28.1612   26.4944 H   0  0  0  0  0  0  0  0  0  0  0  0
  -12.9464  -27.3780   26.3372 H   0  0  0  0  0  0  0  0  0  0  0  0
  -14.1101  -29.4429   26.0408 H   0  0  0  0  0  0  0  0  0  0  0  0
  -12.7357  -29.3080   25.0213 H   0  0  0  0  0  0  0  0  0  0  0  0
   -8.9441  -33.4233   24.0620 H   0  0  0  0  0  0  0  0  0  0  0  0
  1  2  2  0
  2  3  1  0
  3  4  2  0
  4  5  1  0
  5  6  1  0
  6  7  1  0
  7  8  1  0
  8  9  1  0
  9 10  1  0
 10 11  1  0
 11 12  2  0
 12 13  1  0
 13 14  2  0
 14 15  1  0
 15 16  2  0
 10 17  1  0
 17 18  1  0
  6 19  2  0
 19 20  1  0
 20 21  2  0
 21  1  1  0
 20  4  1  0
 18  7  1  0
 16 11  1  0
  1 22  1  0
  2 23  1  0
  3 24  1  0
  8 25  1  0
  8 26  1  0
  9 27  1  0
  9 28  1  0
 12 29  1  0
 13 30  1  0
 15 31  1  0
 16 32  1  0
 17 33  1  0
 17 34  1  0
 18 35  1  0
 18 36  1  0
 21 37  1  0
M  END
>  <Energy>  (1375) 
134.7795772699273

>  <compound_id>  (1375) 
6747

>  <target_id>  (1375) 
1

>  <reference_id>  (1375) 
82

>  <inspiration_ids>  (1375) 
[68, 82]

>  <energy_score>  (1375) 
-15.01513781097401

>  <distance_score>  (1375) 
4.377790223052349

>  <path>  (1375) 
/opt/xchem-fragalysis-2/maxwin/BulkDock/SCRATCH/511018/C6747-P82/C6747-P82.minimised.mol

>  <scratch_subdir>  (1375) 
/opt/xchem-fragalysis-2/maxwin/BulkDock/SCRATCH/511018/C6747-P82

>  <fragmenstein_runtime>  (1375) 
2.89618182182312

>  <fragmenstein_outcome>  (1375) 
too moved

>  <fragmenstein_mode>  (1375) 
expansion

>  <fragmenstein_error>  (1375) 


$$$$
C6748-P68
     RDKit          3D

 47 50  0  0  0  0  0  0  0  0999 V2000
  -14.8517  -27.8935   25.2956 O   0  0  0  0  0  0  0  0  0  0  0  0
  -13.6904  -27.6005   25.2581 C   0  0  0  0  0  0  0  0  0  0  0  0
  -12.2270  -28.6208   24.8017 N   0  0  0  0  0  0  0  0  0  0  0  0
  -12.1121  -30.6943   23.9046 C   0  0  0  0  0  0  0  0  0  0  0  0
  -12.6565  -32.2720   24.7271 C   0  0  0  0  0  0  0  0  0  0  0  0
  -11.8949  -33.4521   24.0973 C   0  0  0  0  0  0  0  0  0  0  0  0
  -10.9202  -34.1356   24.8264 C   0  0  0  0  0  0  0  0  0  0  0  0
  -10.1337  -35.1603   24.2875 C   0  0  0  0  0  0  0  0  0  0  0  0
  -10.3221  -35.5354   22.9540 C   0  0  0  0  0  0  0  0  0  0  0  0
   -9.6061  -36.5121   22.2850 N   0  0  0  0  0  0  0  0  0  0  0  0
  -10.0528  -36.6079   21.0562 C   0  0  0  0  0  0  0  0  0  0  0  0
  -11.3314  -35.5524   20.6279 S   0  0  0  0  0  0  0  0  0  0  0  0
  -11.3080  -34.8776   22.2146 C   0  0  0  0  0  0  0  0  0  0  0  0
  -12.1036  -33.8412   22.7637 C   0  0  0  0  0  0  0  0  0  0  0  0
  -13.0896  -26.4089   25.4024 N   0  0  0  0  0  0  0  0  0  0  0  0
  -12.7674  -26.1877   26.6664 C   0  0  0  0  0  0  0  0  0  0  0  0
  -11.4041  -25.4720   26.3030 C   0  0  0  0  0  0  0  0  0  0  0  0
  -11.7005  -24.0345   26.0849 N   0  0  0  0  0  0  0  0  0  0  0  0
  -11.2567  -23.2851   27.0922 C   0  0  0  0  0  0  0  0  0  0  0  0
  -11.8058  -22.0668   27.4641 C   0  0  0  0  0  0  0  0  0  0  0  0
  -11.6428  -21.6986   28.7363 C   0  0  0  0  0  0  0  0  0  0  0  0
  -10.5300  -22.0892   29.2500 N   0  0  0  0  0  0  0  0  0  0  0  0
   -9.7166  -22.8694   28.4718 C   0  0  0  0  0  0  0  0  0  0  0  0
  -10.0953  -23.7225   27.5928 C   0  0  0  0  0  0  0  0  0  0  0  0
  -12.9843  -23.7086   25.5322 C   0  0  0  0  0  0  0  0  0  0  0  0
  -13.6686  -25.0351   25.5402 C   0  0  0  0  0  0  0  0  0  0  0  0
  -11.3593  -28.0769   24.9592 H   0  0  0  0  0  0  0  0  0  0  0  0
  -12.6414  -30.9195   22.8029 H   0  0  0  0  0  0  0  0  0  0  0  0
  -11.1795  -31.0563   23.1544 H   0  0  0  0  0  0  0  0  0  0  0  0
  -12.4799  -32.1775   25.8027 H   0  0  0  0  0  0  0  0  0  0  0  0
  -13.7331  -32.4295   24.5687 H   0  0  0  0  0  0  0  0  0  0  0  0
  -10.7087  -33.8687   25.8473 H   0  0  0  0  0  0  0  0  0  0  0  0
   -9.3709  -35.6498   24.8862 H   0  0  0  0  0  0  0  0  0  0  0  0
   -9.6413  -37.3137   20.3467 H   0  0  0  0  0  0  0  0  0  0  0  0
  -12.8530  -33.3536   22.1461 H   0  0  0  0  0  0  0  0  0  0  0  0
  -13.4659  -25.9282   27.4253 H   0  0  0  0  0  0  0  0  0  0  0  0
  -12.2992  -27.1058   26.9673 H   0  0  0  0  0  0  0  0  0  0  0  0
  -10.9593  -25.9140   25.4124 H   0  0  0  0  0  0  0  0  0  0  0  0
  -10.5632  -25.7998   26.9277 H   0  0  0  0  0  0  0  0  0  0  0  0
  -12.4932  -21.5652   26.8277 H   0  0  0  0  0  0  0  0  0  0  0  0
  -12.2614  -21.0080   29.2778 H   0  0  0  0  0  0  0  0  0  0  0  0
   -8.6253  -22.7763   28.4752 H   0  0  0  0  0  0  0  0  0  0  0  0
   -9.3954  -24.3576   27.0824 H   0  0  0  0  0  0  0  0  0  0  0  0
  -12.8937  -23.2392   24.5403 H   0  0  0  0  0  0  0  0  0  0  0  0
  -13.6073  -22.9430   25.9440 H   0  0  0  0  0  0  0  0  0  0  0  0
  -13.9283  -24.9966   24.4724 H   0  0  0  0  0  0  0  0  0  0  0  0
  -14.7465  -25.0926   25.6926 H   0  0  0  0  0  0  0  0  0  0  0  0
  1  2  2  0
  2  3  1  0
  3  4  1  0
  4  5  1  0
  5  6  1  0
  6  7  2  0
  7  8  1  0
  8  9  2  0
  9 10  1  0
 10 11  2  0
 11 12  1  0
 12 13  1  0
 13 14  2  0
  2 15  1  0
 15 16  1  0
 16 17  1  0
 17 18  1  0
 18 19  1  0
 19 20  2  0
 20 21  1  0
 21 22  2  0
 22 23  1  0
 23 24  2  0
 18 25  1  0
 25 26  1  0
 14  6  1  0
 26 15  1  0
 13  9  1  0
 24 19  1  0
  3 27  1  0
  4 28  1  0
  4 29  1  0
  5 30  1  0
  5 31  1  0
  7 32  1  0
  8 33  1  0
 11 34  1  0
 14 35  1  0
 16 36  1  0
 16 37  1  0
 17 38  1  0
 17 39  1  0
 20 40  1  0
 21 41  1  0
 23 42  1  0
 24 43  1  0
 25 44  1  0
 25 45  1  0
 26 46  1  0
 26 47  1  0
M  END
>  <Energy>  (1376) 
572.71561611496895

>  <compound_id>  (1376) 
6748

>  <target_id>  (1376) 
1

>  <reference_id>  (1376) 
68

>  <inspiration_ids>  (1376) 
[68, 82]

>  <energy_score>  (1376) 
475.96462775457496

>  <distance_score>  (1376) 
3.53863348806141

>  <path>  (1376) 
/opt/xchem-fragalysis-2/maxwin/BulkDock/SCRATCH/511018/C6748-P68/C6748-P68.minimised.mol

>  <scratch_subdir>  (1376) 
/opt/xchem-fragalysis-2/maxwin/BulkDock/SCRATCH/511018/C6748-P68

>  <fragmenstein_runtime>  (1376) 
10.109211444854736

>  <fragmenstein_outcome>  (1376) 
too moved

>  <fragmenstein_mode>  (1376) 
expansion

>  <fragmenstein_error>  (1376) 


$$$$
C6748-P82
     RDKit          3D

 47 50  0  0  0  0  0  0  0  0999 V2000
   -8.9078  -30.4646   26.4901 O   0  0  0  0  0  0  0  0  0  0  0  0
   -9.3885  -29.8703   25.5930 C   0  0  0  0  0  0  0  0  0  0  0  0
   -8.9836  -29.8069   24.1215 N   0  0  0  0  0  0  0  0  0  0  0  0
   -7.9412  -30.5424   23.3693 C   0  0  0  0  0  0  0  0  0  0  0  0
   -8.3857  -31.7784   22.5183 C   0  0  0  0  0  0  0  0  0  0  0  0
   -8.5480  -33.2166   22.9762 C   0  0  0  0  0  0  0  0  0  0  0  0
   -9.5334  -33.6512   23.8679 C   0  0  0  0  0  0  0  0  0  0  0  0
   -9.7021  -35.0139   24.1756 C   0  0  0  0  0  0  0  0  0  0  0  0
   -8.8863  -35.9821   23.5633 C   0  0  0  0  0  0  0  0  0  0  0  0
   -8.9305  -37.3499   23.7846 N   0  0  0  0  0  0  0  0  0  0  0  0
   -8.0419  -37.9414   23.0188 C   0  0  0  0  0  0  0  0  0  0  0  0
   -7.1206  -36.9282   21.9940 S   0  0  0  0  0  0  0  0  0  0  0  0
   -7.9315  -35.5547   22.6429 C   0  0  0  0  0  0  0  0  0  0  0  0
   -7.7452  -34.1933   22.3481 C   0  0  0  0  0  0  0  0  0  0  0  0
  -10.7832  -28.9468   25.5547 N   0  0  0  0  0  0  0  0  0  0  0  0
  -10.4691  -27.5131   25.8771 C   0  0  0  0  0  0  0  0  0  0  0  0
  -10.4909  -26.4791   27.0634 C   0  0  0  0  0  0  0  0  0  0  0  0
  -11.7089  -26.5317   27.8267 N   0  0  0  0  0  0  0  0  0  0  0  0
  -11.5113  -25.8523   29.0587 C   0  0  0  0  0  0  0  0  0  0  0  0
  -11.9988  -24.5575   29.1922 C   0  0  0  0  0  0  0  0  0  0  0  0
  -11.8262  -23.8754   30.3905 C   0  0  0  0  0  0  0  0  0  0  0  0
  -11.1262  -24.3535   31.4392 N   0  0  0  0  0  0  0  0  0  0  0  0
  -10.6073  -25.5812   31.2811 C   0  0  0  0  0  0  0  0  0  0  0  0
  -10.7759  -26.3514   30.1363 C   0  0  0  0  0  0  0  0  0  0  0  0
  -12.1573  -27.8982   27.8847 C   0  0  0  0  0  0  0  0  0  0  0  0
  -11.8402  -28.7346   26.6188 C   0  0  0  0  0  0  0  0  0  0  0  0
   -9.6704  -29.2656   23.6070 H   0  0  0  0  0  0  0  0  0  0  0  0
   -7.8177  -29.8283   22.5414 H   0  0  0  0  0  0  0  0  0  0  0  0
   -6.9116  -30.5121   23.7039 H   0  0  0  0  0  0  0  0  0  0  0  0
   -9.3088  -31.5255   21.9799 H   0  0  0  0  0  0  0  0  0  0  0  0
   -7.6308  -31.8157   21.7190 H   0  0  0  0  0  0  0  0  0  0  0  0
  -10.1769  -32.9544   24.3886 H   0  0  0  0  0  0  0  0  0  0  0  0
  -10.4535  -35.3272   24.8936 H   0  0  0  0  0  0  0  0  0  0  0  0
   -7.8999  -39.0141   23.0239 H   0  0  0  0  0  0  0  0  0  0  0  0
   -6.9733  -33.9021   21.6381 H   0  0  0  0  0  0  0  0  0  0  0  0
  -11.0021  -26.9847   25.0768 H   0  0  0  0  0  0  0  0  0  0  0  0
   -9.4283  -27.5301   25.6327 H   0  0  0  0  0  0  0  0  0  0  0  0
  -10.4508  -25.4679   26.6393 H   0  0  0  0  0  0  0  0  0  0  0  0
   -9.5901  -26.5696   27.6808 H   0  0  0  0  0  0  0  0  0  0  0  0
  -12.5302  -24.0846   28.3766 H   0  0  0  0  0  0  0  0  0  0  0  0
  -12.2525  -22.8861   30.5261 H   0  0  0  0  0  0  0  0  0  0  0  0
  -10.0334  -25.9561   32.1229 H   0  0  0  0  0  0  0  0  0  0  0  0
  -10.3015  -27.3189   30.1202 H   0  0  0  0  0  0  0  0  0  0  0  0
  -13.2498  -27.8835   27.9204 H   0  0  0  0  0  0  0  0  0  0  0  0
  -11.8712  -28.3982   28.7976 H   0  0  0  0  0  0  0  0  0  0  0  0
  -12.7202  -28.5534   25.9739 H   0  0  0  0  0  0  0  0  0  0  0  0
  -12.0009  -29.7697   26.9597 H   0  0  0  0  0  0  0  0  0  0  0  0
  1  2  2  0
  2  3  1  0
  3  4  1  0
  4  5  1  0
  5  6  1  0
  6  7  2  0
  7  8  1  0
  8  9  2  0
  9 10  1  0
 10 11  2  0
 11 12  1  0
 12 13  1  0
 13 14  2  0
  2 15  1  0
 15 16  1  0
 16 17  1  0
 17 18  1  0
 18 19  1  0
 19 20  2  0
 20 21  1  0
 21 22  2  0
 22 23  1  0
 23 24  2  0
 18 25  1  0
 25 26  1  0
 14  6  1  0
 26 15  1  0
 13  9  1  0
 24 19  1  0
  3 27  1  0
  4 28  1  0
  4 29  1  0
  5 30  1  0
  5 31  1  0
  7 32  1  0
  8 33  1  0
 11 34  1  0
 14 35  1  0
 16 36  1  0
 16 37  1  0
 17 38  1  0
 17 39  1  0
 20 40  1  0
 21 41  1  0
 23 42  1  0
 24 43  1  0
 25 44  1  0
 25 45  1  0
 26 46  1  0
 26 47  1  0
M  END
>  <Energy>  (1377) 
177.31818290783849

>  <compound_id>  (1377) 
6748

>  <target_id>  (1377) 
1

>  <reference_id>  (1377) 
82

>  <inspiration_ids>  (1377) 
[68, 82]

>  <energy_score>  (1377) 
80.5671945474462

>  <distance_score>  (1377) 
2.8589268820844835

>  <path>  (1377) 
/opt/xchem-fragalysis-2/maxwin/BulkDock/SCRATCH/511018/C6748-P82/C6748-P82.minimised.mol

>  <scratch_subdir>  (1377) 
/opt/xchem-fragalysis-2/maxwin/BulkDock/SCRATCH/511018/C6748-P82

>  <fragmenstein_runtime>  (1377) 
7.665225028991699

>  <fragmenstein_outcome>  (1377) 
too moved

>  <fragmenstein_mode>  (1377) 
expansion

>  <fragmenstein_error>  (1377) 


$$$$
C6749-P68
     RDKit          3D

 41 44  0  0  0  0  0  0  0  0999 V2000
  -10.2722  -32.3221   24.4327 O   0  0  0  0  0  0  0  0  0  0  0  0
  -10.9055  -32.3248   25.4883 C   0  0  0  0  0  0  0  0  0  0  0  0
  -11.8343  -33.4361   26.0114 N   0  0  0  0  0  0  0  0  0  0  0  0
  -12.2553  -34.6059   25.4364 C   0  0  0  0  0  0  0  0  0  0  0  0
  -13.1000  -35.4826   25.9101 N   0  0  0  0  0  0  0  0  0  0  0  0
  -13.0218  -36.6365   25.1335 C   0  0  0  0  0  0  0  0  0  0  0  0
  -13.7078  -37.8393   25.3768 C   0  0  0  0  0  0  0  0  0  0  0  0
  -13.5193  -38.9280   24.5191 C   0  0  0  0  0  0  0  0  0  0  0  0
  -12.6667  -38.8335   23.4230 C   0  0  0  0  0  0  0  0  0  0  0  0
  -11.9762  -37.6532   23.1555 C   0  0  0  0  0  0  0  0  0  0  0  0
  -12.1678  -36.5749   24.0298 C   0  0  0  0  0  0  0  0  0  0  0  0
  -11.4538  -35.0300   23.9800 S   0  0  0  0  0  0  0  0  0  0  0  0
  -10.9100  -30.6728   26.6072 N   0  0  0  0  0  0  0  0  0  0  0  0
   -9.8849  -30.1936   27.8050 C   0  0  0  0  0  0  0  0  0  0  0  0
   -9.6623  -28.3266   28.4451 C   0  0  0  0  0  0  0  0  0  0  0  0
  -10.0891  -26.7958   28.0742 N   0  0  0  0  0  0  0  0  0  0  0  0
   -9.3775  -25.3273   28.7961 C   0  0  0  0  0  0  0  0  0  0  0  0
  -10.0307  -24.0952   28.9544 C   0  0  0  0  0  0  0  0  0  0  0  0
  -10.4117  -23.7137   30.7106 C   0  0  0  0  0  0  0  0  0  0  0  0
   -9.9832  -24.2162   31.9366 N   0  0  0  0  0  0  0  0  0  0  0  0
   -8.9460  -25.0744   31.7480 C   0  0  0  0  0  0  0  0  0  0  0  0
   -8.3977  -25.6210   30.3457 C   0  0  0  0  0  0  0  0  0  0  0  0
  -10.5457  -26.9847   26.6754 C   0  0  0  0  0  0  0  0  0  0  0  0
  -10.1526  -28.7711   26.3068 C   0  0  0  0  0  0  0  0  0  0  0  0
  -12.2808  -33.1162   26.8464 H   0  0  0  0  0  0  0  0  0  0  0  0
  -14.3773  -37.9168   26.2276 H   0  0  0  0  0  0  0  0  0  0  0  0
  -14.0495  -39.8586   24.7110 H   0  0  0  0  0  0  0  0  0  0  0  0
  -12.5357  -39.6918   22.7669 H   0  0  0  0  0  0  0  0  0  0  0  0
  -11.3061  -37.5766   22.3047 H   0  0  0  0  0  0  0  0  0  0  0  0
   -9.3826  -31.1149   28.1128 H   0  0  0  0  0  0  0  0  0  0  0  0
   -9.0869  -29.8236   27.2277 H   0  0  0  0  0  0  0  0  0  0  0  0
   -9.0793  -28.3799   29.3873 H   0  0  0  0  0  0  0  0  0  0  0  0
  -10.7719  -28.2178   28.5611 H   0  0  0  0  0  0  0  0  0  0  0  0
  -10.5903  -23.5511   28.1936 H   0  0  0  0  0  0  0  0  0  0  0  0
  -11.0970  -22.8222   30.8169 H   0  0  0  0  0  0  0  0  0  0  0  0
   -8.2894  -24.7688   32.5246 H   0  0  0  0  0  0  0  0  0  0  0  0
   -8.1384  -24.5739   30.2897 H   0  0  0  0  0  0  0  0  0  0  0  0
  -11.6177  -26.8257   26.4825 H   0  0  0  0  0  0  0  0  0  0  0  0
  -10.0320  -26.3181   25.9859 H   0  0  0  0  0  0  0  0  0  0  0  0
  -11.1258  -28.6126   26.8336 H   0  0  0  0  0  0  0  0  0  0  0  0
  -10.1270  -28.3475   25.2876 H   0  0  0  0  0  0  0  0  0  0  0  0
  1  2  2  0
  2  3  1  0
  3  4  1  0
  4  5  2  0
  5  6  1  0
  6  7  2  0
  7  8  1  0
  8  9  2  0
  9 10  1  0
 10 11  2  0
 11 12  1  0
  2 13  1  0
 13 14  1  0
 14 15  1  0
 15 16  1  0
 16 17  1  0
 17 18  2  0
 18 19  1  0
 19 20  2  0
 20 21  1  0
 21 22  2  0
 16 23  1  0
 23 24  1  0
 12  4  1  0
 24 13  1  0
 11  6  1  0
 22 17  1  0
  3 25  1  0
  7 26  1  0
  8 27  1  0
  9 28  1  0
 10 29  1  0
 14 30  1  0
 14 31  1  0
 15 32  1  0
 15 33  1  0
 18 34  1  0
 19 35  1  0
 21 36  1  0
 22 37  1  0
 23 38  1  0
 23 39  1  0
 24 40  1  0
 24 41  1  0
M  END
>  <Energy>  (1378) 
898.60675185242826

>  <compound_id>  (1378) 
6749

>  <target_id>  (1378) 
1

>  <reference_id>  (1378) 
68

>  <inspiration_ids>  (1378) 
[68, 82]

>  <energy_score>  (1378) 
805.8589671855887

>  <distance_score>  (1378) 
4.508506016978372

>  <path>  (1378) 
/opt/xchem-fragalysis-2/maxwin/BulkDock/SCRATCH/511018/C6749-P68/C6749-P68.minimised.mol

>  <scratch_subdir>  (1378) 
/opt/xchem-fragalysis-2/maxwin/BulkDock/SCRATCH/511018/C6749-P68

>  <fragmenstein_runtime>  (1378) 
9.985628843307495

>  <fragmenstein_outcome>  (1378) 
too moved

>  <fragmenstein_mode>  (1378) 
expansion

>  <fragmenstein_error>  (1378) 


$$$$
C6749-P82
     RDKit          3D

 41 44  0  0  0  0  0  0  0  0999 V2000
  -11.6387  -31.5553   26.3671 O   0  0  0  0  0  0  0  0  0  0  0  0
  -12.7514  -31.8452   26.1376 C   0  0  0  0  0  0  0  0  0  0  0  0
  -13.3001  -32.8333   25.2049 N   0  0  0  0  0  0  0  0  0  0  0  0
  -12.6759  -33.7545   24.4105 C   0  0  0  0  0  0  0  0  0  0  0  0
  -13.2898  -34.6938   23.7355 N   0  0  0  0  0  0  0  0  0  0  0  0
  -12.3440  -35.5033   23.1084 C   0  0  0  0  0  0  0  0  0  0  0  0
  -12.6152  -36.6382   22.3212 C   0  0  0  0  0  0  0  0  0  0  0  0
  -11.5601  -37.3444   21.7332 C   0  0  0  0  0  0  0  0  0  0  0  0
  -10.2433  -36.9337   21.9134 C   0  0  0  0  0  0  0  0  0  0  0  0
   -9.9448  -35.8185   22.6962 C   0  0  0  0  0  0  0  0  0  0  0  0
  -11.0125  -35.1292   23.2897 C   0  0  0  0  0  0  0  0  0  0  0  0
  -10.9712  -33.7688   24.3189 S   0  0  0  0  0  0  0  0  0  0  0  0
  -13.9936  -31.3945   26.7735 N   0  0  0  0  0  0  0  0  0  0  0  0
  -14.5502  -30.1365   26.0371 C   0  0  0  0  0  0  0  0  0  0  0  0
  -13.7106  -28.7815   26.0073 C   0  0  0  0  0  0  0  0  0  0  0  0
  -13.4183  -28.3026   27.3812 N   0  0  0  0  0  0  0  0  0  0  0  0
  -12.6106  -27.1487   27.5251 C   0  0  0  0  0  0  0  0  0  0  0  0
  -11.7711  -26.9321   28.6314 C   0  0  0  0  0  0  0  0  0  0  0  0
  -11.0498  -25.7515   28.7784 C   0  0  0  0  0  0  0  0  0  0  0  0
  -11.1040  -24.7387   27.9039 N   0  0  0  0  0  0  0  0  0  0  0  0
  -11.9421  -24.9154   26.8657 C   0  0  0  0  0  0  0  0  0  0  0  0
  -12.6911  -26.0720   26.6386 C   0  0  0  0  0  0  0  0  0  0  0  0
  -13.1085  -29.4764   28.2009 C   0  0  0  0  0  0  0  0  0  0  0  0
  -14.2107  -30.5261   27.9671 C   0  0  0  0  0  0  0  0  0  0  0  0
  -14.2998  -32.8803   25.3229 H   0  0  0  0  0  0  0  0  0  0  0  0
  -13.6425  -36.9539   22.1709 H   0  0  0  0  0  0  0  0  0  0  0  0
  -11.7742  -38.2179   21.1215 H   0  0  0  0  0  0  0  0  0  0  0  0
   -9.4338  -37.4859   21.4403 H   0  0  0  0  0  0  0  0  0  0  0  0
   -8.9178  -35.4937   22.8411 H   0  0  0  0  0  0  0  0  0  0  0  0
  -14.6186  -30.4553   24.9892 H   0  0  0  0  0  0  0  0  0  0  0  0
  -15.6095  -29.9536   26.2866 H   0  0  0  0  0  0  0  0  0  0  0  0
  -14.3056  -28.0449   25.4569 H   0  0  0  0  0  0  0  0  0  0  0  0
  -12.7710  -28.9395   25.4728 H   0  0  0  0  0  0  0  0  0  0  0  0
  -11.6556  -27.6550   29.4248 H   0  0  0  0  0  0  0  0  0  0  0  0
  -10.4014  -25.5993   29.6365 H   0  0  0  0  0  0  0  0  0  0  0  0
  -12.0124  -24.0703   26.1847 H   0  0  0  0  0  0  0  0  0  0  0  0
  -13.3377  -26.0902   25.7700 H   0  0  0  0  0  0  0  0  0  0  0  0
  -12.1335  -29.8692   27.9148 H   0  0  0  0  0  0  0  0  0  0  0  0
  -13.0757  -29.2801   29.2713 H   0  0  0  0  0  0  0  0  0  0  0  0
  -14.0540  -31.2540   28.7786 H   0  0  0  0  0  0  0  0  0  0  0  0
  -15.2422  -30.1893   28.1616 H   0  0  0  0  0  0  0  0  0  0  0  0
  1  2  2  0
  2  3  1  0
  3  4  1  0
  4  5  2  0
  5  6  1  0
  6  7  2  0
  7  8  1  0
  8  9  2  0
  9 10  1  0
 10 11  2  0
 11 12  1  0
  2 13  1  0
 13 14  1  0
 14 15  1  0
 15 16  1  0
 16 17  1  0
 17 18  2  0
 18 19  1  0
 19 20  2  0
 20 21  1  0
 21 22  2  0
 16 23  1  0
 23 24  1  0
 12  4  1  0
 24 13  1  0
 11  6  1  0
 22 17  1  0
  3 25  1  0
  7 26  1  0
  8 27  1  0
  9 28  1  0
 10 29  1  0
 14 30  1  0
 14 31  1  0
 15 32  1  0
 15 33  1  0
 18 34  1  0
 19 35  1  0
 21 36  1  0
 22 37  1  0
 23 38  1  0
 23 39  1  0
 24 40  1  0
 24 41  1  0
M  END
>  <Energy>  (1379) 
81.868243053975874

>  <compound_id>  (1379) 
6749

>  <target_id>  (1379) 
1

>  <reference_id>  (1379) 
82

>  <inspiration_ids>  (1379) 
[68, 82]

>  <energy_score>  (1379) 
-10.879541612864386

>  <distance_score>  (1379) 
4.8180357051962295

>  <path>  (1379) 
/opt/xchem-fragalysis-2/maxwin/BulkDock/SCRATCH/511018/C6749-P82/C6749-P82.minimised.mol

>  <scratch_subdir>  (1379) 
/opt/xchem-fragalysis-2/maxwin/BulkDock/SCRATCH/511018/C6749-P82

>  <fragmenstein_runtime>  (1379) 
7.450763463973999

>  <fragmenstein_outcome>  (1379) 
too moved

>  <fragmenstein_mode>  (1379) 
expansion

>  <fragmenstein_error>  (1379) 


$$$$
C6750-P68
     RDKit          3D

 41 43  0  0  0  0  0  0  0  0999 V2000
   -9.8001  -38.3510   26.6157 C   0  0  0  0  0  0  0  0  0  0  0  0
   -9.0293  -37.1924   26.0332 C   0  0  0  0  0  0  0  0  0  0  0  0
   -8.5474  -37.5179   24.7241 C   0  0  0  0  0  0  0  0  0  0  0  0
   -8.4244  -36.5720   23.7270 C   0  0  0  0  0  0  0  0  0  0  0  0
   -8.9339  -35.3176   23.9783 C   0  0  0  0  0  0  0  0  0  0  0  0
   -9.2882  -35.0160   25.3030 C   0  0  0  0  0  0  0  0  0  0  0  0
  -10.4960  -33.9673   25.8116 S   0  0  0  0  0  0  0  0  0  0  0  0
   -9.4262  -33.7574   27.6912 C   0  0  0  0  0  0  0  0  0  0  0  0
   -9.3763  -32.0959   28.1558 N   0  0  0  0  0  0  0  0  0  0  0  0
  -10.1311  -30.6544   27.4392 C   0  0  0  0  0  0  0  0  0  0  0  0
  -10.8310  -30.8924   26.6025 O   0  0  0  0  0  0  0  0  0  0  0  0
   -9.7858  -29.0172   27.7989 N   0  0  0  0  0  0  0  0  0  0  0  0
  -10.4459  -27.5142   27.1402 C   0  0  0  0  0  0  0  0  0  0  0  0
  -10.8587  -27.4815   25.7001 C   0  0  0  0  0  0  0  0  0  0  0  0
  -10.0833  -25.7788   27.1776 C   0  0  0  0  0  0  0  0  0  0  0  0
  -10.8447  -24.4370   26.9263 C   0  0  0  0  0  0  0  0  0  0  0  0
  -12.0211  -24.2427   26.2384 C   0  0  0  0  0  0  0  0  0  0  0  0
  -12.4206  -22.9395   26.0161 C   0  0  0  0  0  0  0  0  0  0  0  0
  -12.0123  -21.9135   26.8009 N   0  0  0  0  0  0  0  0  0  0  0  0
  -11.2423  -22.2522   27.8424 C   0  0  0  0  0  0  0  0  0  0  0  0
  -10.4982  -23.4066   27.7973 C   0  0  0  0  0  0  0  0  0  0  0  0
   -8.8815  -34.9929   27.7167 N   0  0  0  0  0  0  0  0  0  0  0  0
   -9.1009  -35.8103   26.4159 C   0  0  0  0  0  0  0  0  0  0  0  0
  -10.3011  -38.1120   27.5415 H   0  0  0  0  0  0  0  0  0  0  0  0
  -10.6101  -38.6153   25.9226 H   0  0  0  0  0  0  0  0  0  0  0  0
   -9.1668  -39.2374   26.7133 H   0  0  0  0  0  0  0  0  0  0  0  0
   -8.3844  -38.5645   24.4632 H   0  0  0  0  0  0  0  0  0  0  0  0
   -8.1255  -36.8603   22.7237 H   0  0  0  0  0  0  0  0  0  0  0  0
   -9.1690  -34.6420   23.1637 H   0  0  0  0  0  0  0  0  0  0  0  0
   -8.8421  -31.8010   28.9438 H   0  0  0  0  0  0  0  0  0  0  0  0
   -9.0786  -28.9895   28.5186 H   0  0  0  0  0  0  0  0  0  0  0  0
  -11.3761  -27.7235   27.6027 H   0  0  0  0  0  0  0  0  0  0  0  0
  -11.8293  -27.9319   25.5359 H   0  0  0  0  0  0  0  0  0  0  0  0
  -11.0925  -26.4892   25.3563 H   0  0  0  0  0  0  0  0  0  0  0  0
  -10.0274  -27.7661   25.0790 H   0  0  0  0  0  0  0  0  0  0  0  0
   -9.7134  -25.6159   28.1800 H   0  0  0  0  0  0  0  0  0  0  0  0
   -9.4136  -25.5510   26.3672 H   0  0  0  0  0  0  0  0  0  0  0  0
  -12.5927  -25.0661   25.8303 H   0  0  0  0  0  0  0  0  0  0  0  0
  -13.1938  -22.7026   25.2947 H   0  0  0  0  0  0  0  0  0  0  0  0
  -11.1142  -21.5255   28.6273 H   0  0  0  0  0  0  0  0  0  0  0  0
   -9.6646  -23.5481   28.4469 H   0  0  0  0  0  0  0  0  0  0  0  0
  1  2  1  0
  2  3  2  0
  3  4  1  0
  4  5  2  0
  5  6  1  0
  6  7  1  0
  7  8  1  0
  8  9  1  0
  9 10  1  0
 10 11  2  0
 10 12  1  0
 12 13  1  0
 13 14  1  0
 13 15  1  0
 15 16  1  0
 16 17  2  0
 17 18  1  0
 18 19  2  0
 19 20  1  0
 20 21  2  0
  8 22  2  0
 22 23  1  0
 23  2  1  0
 23  6  2  0
 21 16  1  0
  1 24  1  0
  1 25  1  0
  1 26  1  0
  3 27  1  0
  4 28  1  0
  5 29  1  0
  9 30  1  0
 12 31  1  0
 13 32  1  0
 14 33  1  0
 14 34  1  0
 14 35  1  0
 15 36  1  0
 15 37  1  0
 17 38  1  0
 18 39  1  0
 20 40  1  0
 21 41  1  0
M  END
>  <Energy>  (1380) 
358.7846498742876

>  <compound_id>  (1380) 
6750

>  <target_id>  (1380) 
1

>  <reference_id>  (1380) 
68

>  <inspiration_ids>  (1380) 
[68, 82]

>  <energy_score>  (1380) 
345.10139973552003

>  <distance_score>  (1380) 
4.761918338540206

>  <path>  (1380) 
/opt/xchem-fragalysis-2/maxwin/BulkDock/SCRATCH/511018/C6750-P68/C6750-P68.minimised.mol

>  <scratch_subdir>  (1380) 
/opt/xchem-fragalysis-2/maxwin/BulkDock/SCRATCH/511018/C6750-P68

>  <fragmenstein_runtime>  (1380) 
13.876642227172852

>  <fragmenstein_outcome>  (1380) 
too moved

>  <fragmenstein_mode>  (1380) 
expansion

>  <fragmenstein_error>  (1380) 


$$$$
C6750-P82
     RDKit          3D

 41 43  0  0  0  0  0  0  0  0999 V2000
   -9.4896  -35.3753   23.7019 C   0  0  0  0  0  0  0  0  0  0  0  0
   -8.5308  -34.7057   22.7604 C   0  0  0  0  0  0  0  0  0  0  0  0
   -7.9378  -35.4593   21.7352 C   0  0  0  0  0  0  0  0  0  0  0  0
   -7.0393  -34.8774   20.8450 C   0  0  0  0  0  0  0  0  0  0  0  0
   -6.6887  -33.5281   20.9492 C   0  0  0  0  0  0  0  0  0  0  0  0
   -7.2682  -32.7707   21.9761 C   0  0  0  0  0  0  0  0  0  0  0  0
   -7.0498  -31.0948   22.3740 S   0  0  0  0  0  0  0  0  0  0  0  0
   -8.1618  -31.2534   23.6289 C   0  0  0  0  0  0  0  0  0  0  0  0
   -8.8326  -30.1855   24.1705 N   0  0  0  0  0  0  0  0  0  0  0  0
   -9.4766  -29.9996   25.5902 C   0  0  0  0  0  0  0  0  0  0  0  0
   -9.4450  -30.7082   26.5268 O   0  0  0  0  0  0  0  0  0  0  0  0
  -10.3143  -28.6230   25.4071 N   0  0  0  0  0  0  0  0  0  0  0  0
  -11.3330  -27.9562   26.3118 C   0  0  0  0  0  0  0  0  0  0  0  0
  -12.1979  -28.8877   27.1759 C   0  0  0  0  0  0  0  0  0  0  0  0
  -11.3693  -26.4240   26.7120 C   0  0  0  0  0  0  0  0  0  0  0  0
  -11.3083  -25.7783   28.0912 C   0  0  0  0  0  0  0  0  0  0  0  0
  -10.8312  -26.3475   29.2643 C   0  0  0  0  0  0  0  0  0  0  0  0
  -10.7826  -25.6169   30.4496 C   0  0  0  0  0  0  0  0  0  0  0  0
  -11.2032  -24.3486   30.5618 N   0  0  0  0  0  0  0  0  0  0  0  0
  -11.7080  -23.8026   29.4420 C   0  0  0  0  0  0  0  0  0  0  0  0
  -11.7539  -24.4511   28.2105 C   0  0  0  0  0  0  0  0  0  0  0  0
   -8.6841  -32.4548   23.7993 N   0  0  0  0  0  0  0  0  0  0  0  0
   -8.1798  -33.3357   22.8664 C   0  0  0  0  0  0  0  0  0  0  0  0
  -10.2923  -35.8641   23.1403 H   0  0  0  0  0  0  0  0  0  0  0  0
   -8.9628  -36.1258   24.2999 H   0  0  0  0  0  0  0  0  0  0  0  0
   -9.9510  -34.6582   24.3877 H   0  0  0  0  0  0  0  0  0  0  0  0
   -8.1800  -36.5142   21.6285 H   0  0  0  0  0  0  0  0  0  0  0  0
   -6.5926  -35.4806   20.0582 H   0  0  0  0  0  0  0  0  0  0  0  0
   -5.9847  -33.0744   20.2600 H   0  0  0  0  0  0  0  0  0  0  0  0
   -9.1155  -29.4441   23.5787 H   0  0  0  0  0  0  0  0  0  0  0  0
  -10.2042  -28.2891   24.4675 H   0  0  0  0  0  0  0  0  0  0  0  0
  -12.0397  -27.8575   25.4653 H   0  0  0  0  0  0  0  0  0  0  0  0
  -11.9058  -29.9369   27.0879 H   0  0  0  0  0  0  0  0  0  0  0  0
  -13.2501  -28.8221   26.8715 H   0  0  0  0  0  0  0  0  0  0  0  0
  -12.1785  -28.6053   28.2283 H   0  0  0  0  0  0  0  0  0  0  0  0
  -12.3553  -26.0918   26.3422 H   0  0  0  0  0  0  0  0  0  0  0  0
  -10.6707  -25.8903   26.0796 H   0  0  0  0  0  0  0  0  0  0  0  0
  -10.4901  -27.3574   29.3275 H   0  0  0  0  0  0  0  0  0  0  0  0
  -10.3945  -26.0646   31.3619 H   0  0  0  0  0  0  0  0  0  0  0  0
  -12.0877  -22.7916   29.5517 H   0  0  0  0  0  0  0  0  0  0  0  0
  -12.1586  -23.9149   27.3568 H   0  0  0  0  0  0  0  0  0  0  0  0
  1  2  1  0
  2  3  2  0
  3  4  1  0
  4  5  2  0
  5  6  1  0
  6  7  1  0
  7  8  1  0
  8  9  1  0
  9 10  1  0
 10 11  2  0
 10 12  1  0
 12 13  1  0
 13 14  1  0
 13 15  1  0
 15 16  1  0
 16 17  2  0
 17 18  1  0
 18 19  2  0
 19 20  1  0
 20 21  2  0
  8 22  2  0
 22 23  1  0
 23  2  1  0
 23  6  2  0
 21 16  1  0
  1 24  1  0
  1 25  1  0
  1 26  1  0
  3 27  1  0
  4 28  1  0
  5 29  1  0
  9 30  1  0
 12 31  1  0
 13 32  1  0
 14 33  1  0
 14 34  1  0
 14 35  1  0
 15 36  1  0
 15 37  1  0
 17 38  1  0
 18 39  1  0
 20 40  1  0
 21 41  1  0
M  END
>  <Energy>  (1381) 
43.340156718548322

>  <compound_id>  (1381) 
6750

>  <target_id>  (1381) 
1

>  <reference_id>  (1381) 
82

>  <inspiration_ids>  (1381) 
[68, 82]

>  <energy_score>  (1381) 
29.65690657977825

>  <distance_score>  (1381) 
4.292266186811655

>  <path>  (1381) 
/opt/xchem-fragalysis-2/maxwin/BulkDock/SCRATCH/511018/C6750-P82/C6750-P82.minimised.mol

>  <scratch_subdir>  (1381) 
/opt/xchem-fragalysis-2/maxwin/BulkDock/SCRATCH/511018/C6750-P82

>  <fragmenstein_runtime>  (1381) 
6.973397254943848

>  <fragmenstein_outcome>  (1381) 
too moved

>  <fragmenstein_mode>  (1381) 
expansion

>  <fragmenstein_error>  (1381) 


$$$$
C6751-P68
     RDKit          3D

 41 43  0  0  0  0  0  0  0  0999 V2000
  -16.2057  -33.7565   28.0819 C   0  0  0  0  0  0  0  0  0  0  0  0
  -15.2322  -34.2292   27.0400 C   0  0  0  0  0  0  0  0  0  0  0  0
  -15.3779  -35.5262   26.5017 C   0  0  0  0  0  0  0  0  0  0  0  0
  -14.5043  -36.0236   25.5385 C   0  0  0  0  0  0  0  0  0  0  0  0
  -13.4430  -35.2492   25.0877 C   0  0  0  0  0  0  0  0  0  0  0  0
  -13.2955  -33.9721   25.6457 C   0  0  0  0  0  0  0  0  0  0  0  0
  -12.0988  -32.8350   25.3437 S   0  0  0  0  0  0  0  0  0  0  0  0
  -12.6770  -31.6480   26.5503 C   0  0  0  0  0  0  0  0  0  0  0  0
  -12.6835  -30.2107   26.4770 N   0  0  0  0  0  0  0  0  0  0  0  0
  -11.3640  -28.8929   26.9843 C   0  0  0  0  0  0  0  0  0  0  0  0
  -10.2931  -29.0065   27.5416 O   0  0  0  0  0  0  0  0  0  0  0  0
  -12.1020  -27.5756   26.3016 N   0  0  0  0  0  0  0  0  0  0  0  0
  -11.6306  -26.2290   26.0912 C   0  0  0  0  0  0  0  0  0  0  0  0
  -13.1269  -25.8532   25.6553 C   0  0  0  0  0  0  0  0  0  0  0  0
  -10.5157  -26.8597   25.3830 C   0  0  0  0  0  0  0  0  0  0  0  0
  -11.1741  -24.7925   26.5338 C   0  0  0  0  0  0  0  0  0  0  0  0
  -10.0195  -24.6889   27.2472 C   0  0  0  0  0  0  0  0  0  0  0  0
   -9.6907  -23.6149   28.0161 C   0  0  0  0  0  0  0  0  0  0  0  0
  -10.5106  -22.6033   28.2819 N   0  0  0  0  0  0  0  0  0  0  0  0
  -11.5270  -22.5514   27.4288 C   0  0  0  0  0  0  0  0  0  0  0  0
  -11.8392  -23.5612   26.4954 C   0  0  0  0  0  0  0  0  0  0  0  0
  -13.8483  -32.1277   26.9806 N   0  0  0  0  0  0  0  0  0  0  0  0
  -14.1550  -33.4375   26.5850 C   0  0  0  0  0  0  0  0  0  0  0  0
  -17.2264  -33.7930   27.6880 H   0  0  0  0  0  0  0  0  0  0  0  0
  -16.1415  -34.3926   28.9705 H   0  0  0  0  0  0  0  0  0  0  0  0
  -15.9993  -32.7261   28.3879 H   0  0  0  0  0  0  0  0  0  0  0  0
  -16.1992  -36.1561   26.8426 H   0  0  0  0  0  0  0  0  0  0  0  0
  -14.6519  -37.0248   25.1390 H   0  0  0  0  0  0  0  0  0  0  0  0
  -12.7469  -35.6259   24.3444 H   0  0  0  0  0  0  0  0  0  0  0  0
  -13.4906  -29.7945   26.1131 H   0  0  0  0  0  0  0  0  0  0  0  0
  -13.0181  -27.8214   26.0021 H   0  0  0  0  0  0  0  0  0  0  0  0
  -13.6502  -25.8720   26.5971 H   0  0  0  0  0  0  0  0  0  0  0  0
  -13.7113  -26.5809   25.0720 H   0  0  0  0  0  0  0  0  0  0  0  0
  -13.3881  -24.9124   25.1782 H   0  0  0  0  0  0  0  0  0  0  0  0
   -9.6610  -26.3630   25.7304 H   0  0  0  0  0  0  0  0  0  0  0  0
  -10.6468  -27.0211   24.3485 H   0  0  0  0  0  0  0  0  0  0  0  0
  -10.1408  -27.8385   25.6229 H   0  0  0  0  0  0  0  0  0  0  0  0
   -9.5990  -25.6153   27.5070 H   0  0  0  0  0  0  0  0  0  0  0  0
   -8.6830  -23.5205   28.3661 H   0  0  0  0  0  0  0  0  0  0  0  0
  -12.0993  -21.6340   27.4669 H   0  0  0  0  0  0  0  0  0  0  0  0
  -12.6957  -23.3309   25.8766 H   0  0  0  0  0  0  0  0  0  0  0  0
  1  2  1  0
  2  3  2  0
  3  4  1  0
  4  5  2  0
  5  6  1  0
  6  7  1  0
  7  8  1  0
  8  9  1  0
  9 10  1  0
 10 11  2  0
 10 12  1  0
 12 13  1  0
 13 14  1  0
 13 15  1  0
 13 16  1  0
 16 17  2  0
 17 18  1  0
 18 19  2  0
 19 20  1  0
 20 21  2  0
  8 22  2  0
 22 23  1  0
 23  2  1  0
 23  6  2  0
 21 16  1  0
  1 24  1  0
  1 25  1  0
  1 26  1  0
  3 27  1  0
  4 28  1  0
  5 29  1  0
  9 30  1  0
 12 31  1  0
 14 32  1  0
 14 33  1  0
 14 34  1  0
 15 35  1  0
 15 36  1  0
 15 37  1  0
 17 38  1  0
 18 39  1  0
 20 40  1  0
 21 41  1  0
M  END
>  <Energy>  (1382) 
253.60821240855833

>  <compound_id>  (1382) 
6751

>  <target_id>  (1382) 
1

>  <reference_id>  (1382) 
68

>  <inspiration_ids>  (1382) 
[68, 82]

>  <energy_score>  (1382) 
196.6780595388077

>  <distance_score>  (1382) 
6.040325591999621

>  <path>  (1382) 
/opt/xchem-fragalysis-2/maxwin/BulkDock/SCRATCH/511018/C6751-P68/C6751-P68.minimised.mol

>  <scratch_subdir>  (1382) 
/opt/xchem-fragalysis-2/maxwin/BulkDock/SCRATCH/511018/C6751-P68

>  <fragmenstein_runtime>  (1382) 
12.461632013320923

>  <fragmenstein_outcome>  (1382) 
too moved

>  <fragmenstein_mode>  (1382) 
expansion

>  <fragmenstein_error>  (1382) 


$$$$
C6751-P82
     RDKit          3D

 41 43  0  0  0  0  0  0  0  0999 V2000
  -12.0392  -37.3544   25.3610 C   0  0  0  0  0  0  0  0  0  0  0  0
  -11.0297  -36.7077   24.4567 C   0  0  0  0  0  0  0  0  0  0  0  0
  -10.3272  -37.4951   23.5337 C   0  0  0  0  0  0  0  0  0  0  0  0
   -9.4033  -36.9438   22.6491 C   0  0  0  0  0  0  0  0  0  0  0  0
   -9.1136  -35.5875   22.6689 C   0  0  0  0  0  0  0  0  0  0  0  0
   -9.8103  -34.8079   23.5925 C   0  0  0  0  0  0  0  0  0  0  0  0
   -9.6427  -33.1437   23.9015 S   0  0  0  0  0  0  0  0  0  0  0  0
  -10.9155  -33.1952   25.0753 C   0  0  0  0  0  0  0  0  0  0  0  0
  -11.1591  -32.0100   25.7793 N   0  0  0  0  0  0  0  0  0  0  0  0
  -12.5157  -31.4259   26.3745 C   0  0  0  0  0  0  0  0  0  0  0  0
  -13.5720  -31.8927   26.4184 O   0  0  0  0  0  0  0  0  0  0  0  0
  -12.0091  -29.9423   26.8040 N   0  0  0  0  0  0  0  0  0  0  0  0
  -12.8081  -28.7255   27.2873 C   0  0  0  0  0  0  0  0  0  0  0  0
  -13.4437  -28.1595   25.9883 C   0  0  0  0  0  0  0  0  0  0  0  0
  -13.9888  -29.3296   28.0846 C   0  0  0  0  0  0  0  0  0  0  0  0
  -12.0841  -27.5033   28.0734 C   0  0  0  0  0  0  0  0  0  0  0  0
  -11.7005  -27.5622   29.4183 C   0  0  0  0  0  0  0  0  0  0  0  0
  -11.0081  -26.5363   30.0917 C   0  0  0  0  0  0  0  0  0  0  0  0
  -10.7496  -25.3498   29.5523 N   0  0  0  0  0  0  0  0  0  0  0  0
  -11.2166  -25.2079   28.3044 C   0  0  0  0  0  0  0  0  0  0  0  0
  -11.8434  -26.2241   27.5464 C   0  0  0  0  0  0  0  0  0  0  0  0
  -11.4490  -34.3786   25.2283 N   0  0  0  0  0  0  0  0  0  0  0  0
  -10.7801  -35.3217   24.4500 C   0  0  0  0  0  0  0  0  0  0  0  0
  -12.8961  -37.7033   24.7762 H   0  0  0  0  0  0  0  0  0  0  0  0
  -11.5905  -38.2071   25.8810 H   0  0  0  0  0  0  0  0  0  0  0  0
  -12.4039  -36.6568   26.1214 H   0  0  0  0  0  0  0  0  0  0  0  0
  -10.5127  -38.5678   23.4943 H   0  0  0  0  0  0  0  0  0  0  0  0
   -8.8833  -37.5897   21.9442 H   0  0  0  0  0  0  0  0  0  0  0  0
   -8.3703  -35.1541   22.0061 H   0  0  0  0  0  0  0  0  0  0  0  0
  -10.3990  -31.3753   25.9771 H   0  0  0  0  0  0  0  0  0  0  0  0
  -11.0364  -29.8290   26.5608 H   0  0  0  0  0  0  0  0  0  0  0  0
  -12.6735  -27.8263   25.2823 H   0  0  0  0  0  0  0  0  0  0  0  0
  -14.0351  -28.9219   25.4665 H   0  0  0  0  0  0  0  0  0  0  0  0
  -14.1135  -27.3165   26.1947 H   0  0  0  0  0  0  0  0  0  0  0  0
  -14.4720  -30.1575   27.5627 H   0  0  0  0  0  0  0  0  0  0  0  0
  -14.8113  -28.6263   28.1977 H   0  0  0  0  0  0  0  0  0  0  0  0
  -13.6735  -29.7214   29.0565 H   0  0  0  0  0  0  0  0  0  0  0  0
  -11.9615  -28.4279   30.0057 H   0  0  0  0  0  0  0  0  0  0  0  0
  -10.6610  -26.6644   31.1143 H   0  0  0  0  0  0  0  0  0  0  0  0
  -11.0590  -24.2253   27.8647 H   0  0  0  0  0  0  0  0  0  0  0  0
  -12.1236  -25.9686   26.5280 H   0  0  0  0  0  0  0  0  0  0  0  0
  1  2  1  0
  2  3  2  0
  3  4  1  0
  4  5  2  0
  5  6  1  0
  6  7  1  0
  7  8  1  0
  8  9  1  0
  9 10  1  0
 10 11  2  0
 10 12  1  0
 12 13  1  0
 13 14  1  0
 13 15  1  0
 13 16  1  0
 16 17  2  0
 17 18  1  0
 18 19  2  0
 19 20  1  0
 20 21  2  0
  8 22  2  0
 22 23  1  0
 23  2  1  0
 23  6  2  0
 21 16  1  0
  1 24  1  0
  1 25  1  0
  1 26  1  0
  3 27  1  0
  4 28  1  0
  5 29  1  0
  9 30  1  0
 12 31  1  0
 14 32  1  0
 14 33  1  0
 14 34  1  0
 15 35  1  0
 15 36  1  0
 15 37  1  0
 17 38  1  0
 18 39  1  0
 20 40  1  0
 21 41  1  0
M  END
>  <Energy>  (1383) 
18.716167516415343

>  <compound_id>  (1383) 
6751

>  <target_id>  (1383) 
1

>  <reference_id>  (1383) 
82

>  <inspiration_ids>  (1383) 
[68, 82]

>  <energy_score>  (1383) 
-17.5815767336544

>  <distance_score>  (1383) 
4.211611508478345

>  <path>  (1383) 
/opt/xchem-fragalysis-2/maxwin/BulkDock/SCRATCH/511018/C6751-P82/C6751-P82.minimised.mol

>  <scratch_subdir>  (1383) 
/opt/xchem-fragalysis-2/maxwin/BulkDock/SCRATCH/511018/C6751-P82

>  <fragmenstein_runtime>  (1383) 
3.6228113174438477

>  <fragmenstein_outcome>  (1383) 
too moved

>  <fragmenstein_mode>  (1383) 
expansion

>  <fragmenstein_error>  (1383) 


$$$$
C6752-P68
     RDKit          3D

 42 44  0  0  0  0  0  0  0  0999 V2000
  -11.6601  -33.8928   20.9470 C   0  0  0  0  0  0  0  0  0  0  0  0
  -11.9330  -34.8148   22.0009 O   0  0  0  0  0  0  0  0  0  0  0  0
  -12.9513  -34.4297   22.8296 C   0  0  0  0  0  0  0  0  0  0  0  0
  -12.7542  -34.7010   24.1811 C   0  0  0  0  0  0  0  0  0  0  0  0
  -13.6833  -34.2700   25.1306 C   0  0  0  0  0  0  0  0  0  0  0  0
  -14.8086  -33.5330   24.7129 C   0  0  0  0  0  0  0  0  0  0  0  0
  -15.6960  -32.8615   25.5405 N   0  0  0  0  0  0  0  0  0  0  0  0
  -16.4301  -32.0424   24.8116 C   0  0  0  0  0  0  0  0  0  0  0  0
  -16.4182  -30.7186   25.1455 N   0  0  0  0  0  0  0  0  0  0  0  0
  -17.1842  -29.5487   24.5738 C   0  0  0  0  0  0  0  0  0  0  0  0
  -18.0343  -29.5172   23.7572 O   0  0  0  0  0  0  0  0  0  0  0  0
  -16.4672  -28.4276   25.2789 N   0  0  0  0  0  0  0  0  0  0  0  0
  -16.5395  -26.9365   25.0873 C   0  0  0  0  0  0  0  0  0  0  0  0
  -17.2922  -26.5037   23.8460 C   0  0  0  0  0  0  0  0  0  0  0  0
  -14.9784  -26.5387   25.0719 C   0  0  0  0  0  0  0  0  0  0  0  0
  -14.1508  -25.3341   25.4672 C   0  0  0  0  0  0  0  0  0  0  0  0
  -12.9059  -25.5182   26.0847 C   0  0  0  0  0  0  0  0  0  0  0  0
  -12.0616  -24.4143   26.3132 C   0  0  0  0  0  0  0  0  0  0  0  0
  -12.3026  -23.1944   25.8122 N   0  0  0  0  0  0  0  0  0  0  0  0
  -13.4697  -23.0427   25.1865 C   0  0  0  0  0  0  0  0  0  0  0  0
  -14.4643  -24.0062   25.1826 C   0  0  0  0  0  0  0  0  0  0  0  0
  -16.5412  -32.4923   23.1635 S   0  0  0  0  0  0  0  0  0  0  0  0
  -15.0384  -33.3608   23.3466 C   0  0  0  0  0  0  0  0  0  0  0  0
  -14.1308  -33.8238   22.3779 C   0  0  0  0  0  0  0  0  0  0  0  0
  -10.6687  -34.1316   20.5562 H   0  0  0  0  0  0  0  0  0  0  0  0
  -11.6400  -32.8570   21.3048 H   0  0  0  0  0  0  0  0  0  0  0  0
  -12.3798  -34.0125   20.1315 H   0  0  0  0  0  0  0  0  0  0  0  0
  -11.8525  -35.2178   24.5019 H   0  0  0  0  0  0  0  0  0  0  0  0
  -13.5187  -34.4333   26.1886 H   0  0  0  0  0  0  0  0  0  0  0  0
  -15.8276  -30.4011   25.8786 H   0  0  0  0  0  0  0  0  0  0  0  0
  -15.7472  -28.8047   25.8492 H   0  0  0  0  0  0  0  0  0  0  0  0
  -17.0180  -26.5098   25.9731 H   0  0  0  0  0  0  0  0  0  0  0  0
  -18.3385  -26.8220   23.8985 H   0  0  0  0  0  0  0  0  0  0  0  0
  -17.2844  -25.4139   23.7530 H   0  0  0  0  0  0  0  0  0  0  0  0
  -16.8622  -26.9341   22.9372 H   0  0  0  0  0  0  0  0  0  0  0  0
  -14.5071  -27.3091   25.6886 H   0  0  0  0  0  0  0  0  0  0  0  0
  -14.6465  -26.7621   24.0568 H   0  0  0  0  0  0  0  0  0  0  0  0
  -12.5418  -26.5064   26.3425 H   0  0  0  0  0  0  0  0  0  0  0  0
  -11.0645  -24.5096   26.7355 H   0  0  0  0  0  0  0  0  0  0  0  0
  -13.6011  -22.1108   24.6531 H   0  0  0  0  0  0  0  0  0  0  0  0
  -15.4633  -23.6981   24.8694 H   0  0  0  0  0  0  0  0  0  0  0  0
  -14.3315  -33.6675   21.3242 H   0  0  0  0  0  0  0  0  0  0  0  0
  1  2  1  0
  2  3  1  0
  3  4  2  0
  4  5  1  0
  5  6  2  0
  6  7  1  0
  7  8  2  0
  8  9  1  0
  9 10  1  0
 10 11  2  0
 10 12  1  0
 12 13  1  0
 13 14  1  0
 13 15  1  0
 15 16  1  0
 16 17  2  0
 17 18  1  0
 18 19  2  0
 19 20  1  0
 20 21  2  0
  8 22  1  0
 22 23  1  0
 23 24  2  0
 24  3  1  0
 23  6  1  0
 21 16  1  0
  1 25  1  0
  1 26  1  0
  1 27  1  0
  4 28  1  0
  5 29  1  0
  9 30  1  0
 12 31  1  0
 13 32  1  0
 14 33  1  0
 14 34  1  0
 14 35  1  0
 15 36  1  0
 15 37  1  0
 17 38  1  0
 18 39  1  0
 20 40  1  0
 21 41  1  0
 24 42  1  0
M  END
>  <Energy>  (1384) 
32.156478847137585

>  <compound_id>  (1384) 
6752

>  <target_id>  (1384) 
1

>  <reference_id>  (1384) 
68

>  <inspiration_ids>  (1384) 
[68, 82]

>  <energy_score>  (1384) 
4.096120488684164

>  <distance_score>  (1384) 
6.659578799733446

>  <path>  (1384) 
/opt/xchem-fragalysis-2/maxwin/BulkDock/SCRATCH/511018/C6752-P68/C6752-P68.minimised.mol

>  <scratch_subdir>  (1384) 
/opt/xchem-fragalysis-2/maxwin/BulkDock/SCRATCH/511018/C6752-P68

>  <fragmenstein_runtime>  (1384) 
10.875184535980225

>  <fragmenstein_outcome>  (1384) 
too moved

>  <fragmenstein_mode>  (1384) 
expansion

>  <fragmenstein_error>  (1384) 


$$$$
C6752-P82
     RDKit          3D

 42 44  0  0  0  0  0  0  0  0999 V2000
   -9.9695  -35.7860   19.4681 C   0  0  0  0  0  0  0  0  0  0  0  0
  -10.8744  -36.6330   20.1770 O   0  0  0  0  0  0  0  0  0  0  0  0
  -11.3280  -36.0961   21.3478 C   0  0  0  0  0  0  0  0  0  0  0  0
  -12.6619  -36.3458   21.6588 C   0  0  0  0  0  0  0  0  0  0  0  0
  -13.2651  -35.7344   22.7616 C   0  0  0  0  0  0  0  0  0  0  0  0
  -12.5099  -34.8498   23.5483 C   0  0  0  0  0  0  0  0  0  0  0  0
  -12.9980  -34.0299   24.5558 N   0  0  0  0  0  0  0  0  0  0  0  0
  -12.0257  -33.2902   25.0110 C   0  0  0  0  0  0  0  0  0  0  0  0
  -12.0899  -32.1669   25.7795 N   0  0  0  0  0  0  0  0  0  0  0  0
  -13.2611  -31.3509   26.2149 C   0  0  0  0  0  0  0  0  0  0  0  0
  -14.4095  -31.5333   26.0606 O   0  0  0  0  0  0  0  0  0  0  0  0
  -12.5337  -30.1642   26.8262 N   0  0  0  0  0  0  0  0  0  0  0  0
  -13.0464  -28.8674   27.3095 C   0  0  0  0  0  0  0  0  0  0  0  0
  -14.5158  -28.6857   26.9148 C   0  0  0  0  0  0  0  0  0  0  0  0
  -12.2232  -27.6464   26.7847 C   0  0  0  0  0  0  0  0  0  0  0  0
  -11.9643  -26.4699   27.7154 C   0  0  0  0  0  0  0  0  0  0  0  0
  -12.0419  -25.1641   27.2194 C   0  0  0  0  0  0  0  0  0  0  0  0
  -11.6834  -24.0997   28.0399 C   0  0  0  0  0  0  0  0  0  0  0  0
  -11.2411  -24.2357   29.3053 N   0  0  0  0  0  0  0  0  0  0  0  0
  -11.1873  -25.4897   29.7848 C   0  0  0  0  0  0  0  0  0  0  0  0
  -11.5224  -26.6126   29.0355 C   0  0  0  0  0  0  0  0  0  0  0  0
  -10.4688  -33.6399   24.4031 S   0  0  0  0  0  0  0  0  0  0  0  0
  -11.1513  -34.7084   23.2689 C   0  0  0  0  0  0  0  0  0  0  0  0
  -10.5231  -35.3397   22.1935 C   0  0  0  0  0  0  0  0  0  0  0  0
   -8.9621  -35.8574   19.8901 H   0  0  0  0  0  0  0  0  0  0  0  0
  -10.3138  -34.7456   19.4431 H   0  0  0  0  0  0  0  0  0  0  0  0
   -9.9213  -36.1449   18.4353 H   0  0  0  0  0  0  0  0  0  0  0  0
  -13.2576  -36.9810   21.0068 H   0  0  0  0  0  0  0  0  0  0  0  0
  -14.3202  -35.8803   22.9699 H   0  0  0  0  0  0  0  0  0  0  0  0
  -11.2523  -31.7660   26.1470 H   0  0  0  0  0  0  0  0  0  0  0  0
  -11.5506  -30.3663   26.8800 H   0  0  0  0  0  0  0  0  0  0  0  0
  -12.9673  -28.9393   28.3956 H   0  0  0  0  0  0  0  0  0  0  0  0
  -15.1538  -29.3955   27.4516 H   0  0  0  0  0  0  0  0  0  0  0  0
  -14.6598  -28.8478   25.8402 H   0  0  0  0  0  0  0  0  0  0  0  0
  -14.8768  -27.6788   27.1312 H   0  0  0  0  0  0  0  0  0  0  0  0
  -11.2481  -27.9893   26.4228 H   0  0  0  0  0  0  0  0  0  0  0  0
  -12.7174  -27.2696   25.8775 H   0  0  0  0  0  0  0  0  0  0  0  0
  -12.3586  -24.9568   26.2021 H   0  0  0  0  0  0  0  0  0  0  0  0
  -11.7417  -23.0760   27.6793 H   0  0  0  0  0  0  0  0  0  0  0  0
  -10.8495  -25.5811   30.8135 H   0  0  0  0  0  0  0  0  0  0  0  0
  -11.4208  -27.5776   29.5071 H   0  0  0  0  0  0  0  0  0  0  0  0
   -9.4659  -35.1876   22.0085 H   0  0  0  0  0  0  0  0  0  0  0  0
  1  2  1  0
  2  3  1  0
  3  4  2  0
  4  5  1  0
  5  6  2  0
  6  7  1  0
  7  8  2  0
  8  9  1  0
  9 10  1  0
 10 11  2  0
 10 12  1  0
 12 13  1  0
 13 14  1  0
 13 15  1  0
 15 16  1  0
 16 17  2  0
 17 18  1  0
 18 19  2  0
 19 20  1  0
 20 21  2  0
  8 22  1  0
 22 23  1  0
 23 24  2  0
 24  3  1  0
 23  6  1  0
 21 16  1  0
  1 25  1  0
  1 26  1  0
  1 27  1  0
  4 28  1  0
  5 29  1  0
  9 30  1  0
 12 31  1  0
 13 32  1  0
 14 33  1  0
 14 34  1  0
 14 35  1  0
 15 36  1  0
 15 37  1  0
 17 38  1  0
 18 39  1  0
 20 40  1  0
 21 41  1  0
 24 42  1  0
M  END
>  <Energy>  (1385) 
-6.3149801212877081

>  <compound_id>  (1385) 
6752

>  <target_id>  (1385) 
1

>  <reference_id>  (1385) 
82

>  <inspiration_ids>  (1385) 
[68, 82]

>  <energy_score>  (1385) 
-34.37533847973819

>  <distance_score>  (1385) 
4.448557347531801

>  <path>  (1385) 
/opt/xchem-fragalysis-2/maxwin/BulkDock/SCRATCH/511018/C6752-P82/C6752-P82.minimised.mol

>  <scratch_subdir>  (1385) 
/opt/xchem-fragalysis-2/maxwin/BulkDock/SCRATCH/511018/C6752-P82

>  <fragmenstein_runtime>  (1385) 
7.12653112411499

>  <fragmenstein_outcome>  (1385) 
too moved

>  <fragmenstein_mode>  (1385) 
expansion

>  <fragmenstein_error>  (1385) 


$$$$
C6753-P68
     RDKit          3D

 38 40  0  0  0  0  0  0  0  0999 V2000
  -10.1848  -27.4141   28.7561 C   0  0  0  0  0  0  0  0  0  0  0  0
  -11.6639  -27.7304   29.3848 C   0  0  0  0  0  0  0  0  0  0  0  0
  -12.1164  -26.5494   31.2761 C   0  0  0  0  0  0  0  0  0  0  0  0
  -11.5017  -24.3552   31.4128 C   0  0  0  0  0  0  0  0  0  0  0  0
  -11.9618  -22.7984   30.2635 C   0  0  0  0  0  0  0  0  0  0  0  0
  -11.7481  -21.5625   29.8246 C   0  0  0  0  0  0  0  0  0  0  0  0
  -11.2163  -21.1902   30.8566 N   0  0  0  0  0  0  0  0  0  0  0  0
  -10.9502  -22.2858   31.8973 C   0  0  0  0  0  0  0  0  0  0  0  0
  -10.5848  -23.8082   32.0817 C   0  0  0  0  0  0  0  0  0  0  0  0
  -11.5506  -29.0793   27.9915 N   0  0  0  0  0  0  0  0  0  0  0  0
  -10.4373  -29.7303   27.2947 C   0  0  0  0  0  0  0  0  0  0  0  0
   -9.2803  -29.5387   27.3221 O   0  0  0  0  0  0  0  0  0  0  0  0
  -11.5474  -31.1504   26.4240 N   0  0  0  0  0  0  0  0  0  0  0  0
  -11.1257  -32.6083   25.5400 C   0  0  0  0  0  0  0  0  0  0  0  0
  -12.0893  -33.5243   25.6264 N   0  0  0  0  0  0  0  0  0  0  0  0
  -11.8544  -34.6550   24.8474 C   0  0  0  0  0  0  0  0  0  0  0  0
  -12.5997  -35.8476   24.8793 C   0  0  0  0  0  0  0  0  0  0  0  0
  -12.2240  -36.8998   24.0480 C   0  0  0  0  0  0  0  0  0  0  0  0
  -12.9248  -38.0407   24.0859 F   0  0  0  0  0  0  0  0  0  0  0  0
  -11.1471  -36.7946   23.1801 C   0  0  0  0  0  0  0  0  0  0  0  0
  -10.4092  -35.6128   23.1170 C   0  0  0  0  0  0  0  0  0  0  0  0
  -10.7882  -34.5612   23.9673 C   0  0  0  0  0  0  0  0  0  0  0  0
  -10.1479  -32.9946   24.0798 S   0  0  0  0  0  0  0  0  0  0  0  0
   -9.4572  -27.9394   29.3905 H   0  0  0  0  0  0  0  0  0  0  0  0
  -10.1454  -27.5707   27.6793 H   0  0  0  0  0  0  0  0  0  0  0  0
   -9.9603  -26.3508   28.6737 H   0  0  0  0  0  0  0  0  0  0  0  0
  -11.8563  -28.5185   30.1319 H   0  0  0  0  0  0  0  0  0  0  0  0
  -12.2580  -26.7568   32.4277 H   0  0  0  0  0  0  0  0  0  0  0  0
  -11.3186  -27.3346   31.8175 H   0  0  0  0  0  0  0  0  0  0  0  0
  -12.7951  -23.0493   29.5577 H   0  0  0  0  0  0  0  0  0  0  0  0
  -12.1830  -21.0067   29.0353 H   0  0  0  0  0  0  0  0  0  0  0  0
  -10.1892  -21.5519   32.3520 H   0  0  0  0  0  0  0  0  0  0  0  0
   -9.7472  -24.2237   32.5885 H   0  0  0  0  0  0  0  0  0  0  0  0
  -12.3525  -29.4330   27.6751 H   0  0  0  0  0  0  0  0  0  0  0  0
  -12.5418  -31.0832   26.6588 H   0  0  0  0  0  0  0  0  0  0  0  0
  -13.4484  -35.9528   25.5451 H   0  0  0  0  0  0  0  0  0  0  0  0
  -10.8888  -37.6375   22.5450 H   0  0  0  0  0  0  0  0  0  0  0  0
   -9.5739  -35.5100   22.4304 H   0  0  0  0  0  0  0  0  0  0  0  0
  1  2  1  0
  2  3  1  0
  3  4  1  0
  4  5  2  0
  5  6  1  0
  6  7  2  0
  7  8  1  0
  8  9  2  0
  2 10  1  0
 10 11  1  0
 11 12  2  0
 11 13  1  0
 13 14  1  0
 14 15  2  0
 15 16  1  0
 16 17  2  0
 17 18  1  0
 18 19  1  0
 18 20  2  0
 20 21  1  0
 21 22  2  0
 22 23  1  0
  9  4  1  0
 23 14  1  0
 22 16  1  0
  1 24  1  0
  1 25  1  0
  1 26  1  0
  2 27  1  0
  3 28  1  0
  3 29  1  0
  5 30  1  0
  6 31  1  0
  8 32  1  0
  9 33  1  0
 10 34  1  0
 13 35  1  0
 17 36  1  0
 20 37  1  0
 21 38  1  0
M  END
>  <Energy>  (1386) 
1013.5791595233477

>  <compound_id>  (1386) 
6753

>  <target_id>  (1386) 
1

>  <reference_id>  (1386) 
68

>  <inspiration_ids>  (1386) 
[68, 82]

>  <energy_score>  (1386) 
978.1155365073603

>  <distance_score>  (1386) 
3.794744872186881

>  <path>  (1386) 
/opt/xchem-fragalysis-2/maxwin/BulkDock/SCRATCH/511018/C6753-P68/C6753-P68.minimised.mol

>  <scratch_subdir>  (1386) 
/opt/xchem-fragalysis-2/maxwin/BulkDock/SCRATCH/511018/C6753-P68

>  <fragmenstein_runtime>  (1386) 
11.838109731674194

>  <fragmenstein_outcome>  (1386) 
too moved

>  <fragmenstein_mode>  (1386) 
expansion

>  <fragmenstein_error>  (1386) 


$$$$
C6753-P82
     RDKit          3D

 38 40  0  0  0  0  0  0  0  0999 V2000
  -13.1590  -29.8012   29.5316 C   0  0  0  0  0  0  0  0  0  0  0  0
  -12.9904  -29.1394   28.1536 C   0  0  0  0  0  0  0  0  0  0  0  0
  -12.2169  -27.5955   28.0823 C   0  0  0  0  0  0  0  0  0  0  0  0
  -11.7488  -26.6124   29.2144 C   0  0  0  0  0  0  0  0  0  0  0  0
  -10.8080  -26.8727   30.2073 C   0  0  0  0  0  0  0  0  0  0  0  0
  -10.4388  -25.9181   31.1626 C   0  0  0  0  0  0  0  0  0  0  0  0
  -10.9571  -24.6918   31.2405 N   0  0  0  0  0  0  0  0  0  0  0  0
  -11.8417  -24.4026   30.2759 C   0  0  0  0  0  0  0  0  0  0  0  0
  -12.2066  -25.2856   29.2485 C   0  0  0  0  0  0  0  0  0  0  0  0
  -12.8187  -30.3284   27.2036 N   0  0  0  0  0  0  0  0  0  0  0  0
  -11.5058  -31.0226   26.6610 C   0  0  0  0  0  0  0  0  0  0  0  0
  -10.4069  -30.7355   26.8032 O   0  0  0  0  0  0  0  0  0  0  0  0
  -12.1556  -32.2177   25.8272 N   0  0  0  0  0  0  0  0  0  0  0  0
  -11.5437  -33.2800   25.1292 C   0  0  0  0  0  0  0  0  0  0  0  0
  -12.0092  -34.5094   25.0681 N   0  0  0  0  0  0  0  0  0  0  0  0
  -11.1179  -35.3518   24.3972 C   0  0  0  0  0  0  0  0  0  0  0  0
  -11.2499  -36.7377   24.2544 C   0  0  0  0  0  0  0  0  0  0  0  0
  -10.3191  -37.4110   23.4748 C   0  0  0  0  0  0  0  0  0  0  0  0
  -10.4446  -38.7359   23.3158 F   0  0  0  0  0  0  0  0  0  0  0  0
   -9.2740  -36.7546   22.8394 C   0  0  0  0  0  0  0  0  0  0  0  0
   -9.0990  -35.3867   22.9984 C   0  0  0  0  0  0  0  0  0  0  0  0
  -10.0301  -34.7231   23.8031 C   0  0  0  0  0  0  0  0  0  0  0  0
  -10.0584  -33.0951   24.2655 S   0  0  0  0  0  0  0  0  0  0  0  0
  -12.6322  -29.2712   30.3177 H   0  0  0  0  0  0  0  0  0  0  0  0
  -14.2210  -29.8619   29.7991 H   0  0  0  0  0  0  0  0  0  0  0  0
  -12.8043  -30.8356   29.5539 H   0  0  0  0  0  0  0  0  0  0  0  0
  -14.0117  -28.8457   27.8670 H   0  0  0  0  0  0  0  0  0  0  0  0
  -12.9534  -27.0141   27.5033 H   0  0  0  0  0  0  0  0  0  0  0  0
  -11.4141  -27.6815   27.3492 H   0  0  0  0  0  0  0  0  0  0  0  0
  -10.3224  -27.8154   30.3398 H   0  0  0  0  0  0  0  0  0  0  0  0
   -9.6958  -26.1496   31.9173 H   0  0  0  0  0  0  0  0  0  0  0  0
  -12.2690  -23.4041   30.3138 H   0  0  0  0  0  0  0  0  0  0  0  0
  -12.8859  -24.9235   28.4865 H   0  0  0  0  0  0  0  0  0  0  0  0
  -13.6218  -30.8847   26.9622 H   0  0  0  0  0  0  0  0  0  0  0  0
  -13.1456  -32.2364   25.9770 H   0  0  0  0  0  0  0  0  0  0  0  0
  -12.0731  -37.2700   24.7153 H   0  0  0  0  0  0  0  0  0  0  0  0
   -8.5775  -37.3256   22.2311 H   0  0  0  0  0  0  0  0  0  0  0  0
   -8.2662  -34.8595   22.5398 H   0  0  0  0  0  0  0  0  0  0  0  0
  1  2  1  0
  2  3  1  0
  3  4  1  0
  4  5  2  0
  5  6  1  0
  6  7  2  0
  7  8  1  0
  8  9  2  0
  2 10  1  0
 10 11  1  0
 11 12  2  0
 11 13  1  0
 13 14  1  0
 14 15  2  0
 15 16  1  0
 16 17  2  0
 17 18  1  0
 18 19  1  0
 18 20  2  0
 20 21  1  0
 21 22  2  0
 22 23  1  0
  9  4  1  0
 23 14  1  0
 22 16  1  0
  1 24  1  0
  1 25  1  0
  1 26  1  0
  2 27  1  0
  3 28  1  0
  3 29  1  0
  5 30  1  0
  6 31  1  0
  8 32  1  0
  9 33  1  0
 10 34  1  0
 13 35  1  0
 17 36  1  0
 20 37  1  0
 21 38  1  0
M  END
>  <Energy>  (1387) 
32.891493162422421

>  <compound_id>  (1387) 
6753

>  <target_id>  (1387) 
1

>  <reference_id>  (1387) 
82

>  <inspiration_ids>  (1387) 
[68, 82]

>  <energy_score>  (1387) 
5.364298038948618

>  <distance_score>  (1387) 
3.790974795130954

>  <path>  (1387) 
/opt/xchem-fragalysis-2/maxwin/BulkDock/SCRATCH/511018/C6753-P82/C6753-P82.minimised.mol

>  <scratch_subdir>  (1387) 
/opt/xchem-fragalysis-2/maxwin/BulkDock/SCRATCH/511018/C6753-P82

>  <fragmenstein_runtime>  (1387) 
7.483105659484863

>  <fragmenstein_outcome>  (1387) 
too moved

>  <fragmenstein_mode>  (1387) 
expansion

>  <fragmenstein_error>  (1387) 


$$$$
C6754-P68
     RDKit          3D

 44 46  0  0  0  0  0  0  0  0999 V2000
  -14.9524  -36.0260   20.9673 C   0  0  0  0  0  0  0  0  0  0  0  0
  -14.1024  -35.3793   22.0231 C   0  0  0  0  0  0  0  0  0  0  0  0
  -12.7586  -35.7337   22.1584 C   0  0  0  0  0  0  0  0  0  0  0  0
  -11.9647  -35.1675   23.1555 C   0  0  0  0  0  0  0  0  0  0  0  0
  -12.5609  -34.2357   24.0177 C   0  0  0  0  0  0  0  0  0  0  0  0
  -11.8756  -33.3991   25.3200 S   0  0  0  0  0  0  0  0  0  0  0  0
  -13.3245  -32.5182   25.6316 C   0  0  0  0  0  0  0  0  0  0  0  0
  -13.4694  -31.3727   26.7181 C   0  0  0  0  0  0  0  0  0  0  0  0
  -12.4340  -30.2477   26.6660 N   0  0  0  0  0  0  0  0  0  0  0  0
  -11.4418  -29.0170   27.9627 C   0  0  0  0  0  0  0  0  0  0  0  0
  -10.9707  -27.7567   27.1102 C   0  0  0  0  0  0  0  0  0  0  0  0
  -12.0466  -28.8226   30.0122 C   0  0  0  0  0  0  0  0  0  0  0  0
  -11.1712  -28.2620   30.6820 N   0  0  0  0  0  0  0  0  0  0  0  0
  -11.1654  -27.8075   31.9048 C   0  0  0  0  0  0  0  0  0  0  0  0
  -11.9523  -27.8856   32.7908 O   0  0  0  0  0  0  0  0  0  0  0  0
   -9.7064  -26.9184   31.7677 C   0  0  0  0  0  0  0  0  0  0  0  0
   -9.7531  -25.6998   32.5078 C   0  0  0  0  0  0  0  0  0  0  0  0
   -9.1608  -24.6784   32.0776 C   0  0  0  0  0  0  0  0  0  0  0  0
   -8.4229  -24.9553   31.0294 N   0  0  0  0  0  0  0  0  0  0  0  0
   -8.0703  -26.0991   30.5141 C   0  0  0  0  0  0  0  0  0  0  0  0
   -8.9177  -27.0822   30.5315 C   0  0  0  0  0  0  0  0  0  0  0  0
  -14.3159  -32.8926   24.8400 N   0  0  0  0  0  0  0  0  0  0  0  0
  -13.8919  -33.8547   23.9182 C   0  0  0  0  0  0  0  0  0  0  0  0
  -14.6744  -34.4508   22.9116 C   0  0  0  0  0  0  0  0  0  0  0  0
  -15.7464  -35.3484   20.6359 H   0  0  0  0  0  0  0  0  0  0  0  0
  -15.4079  -36.9393   21.3621 H   0  0  0  0  0  0  0  0  0  0  0  0
  -14.3544  -36.2803   20.0858 H   0  0  0  0  0  0  0  0  0  0  0  0
  -12.3149  -36.4633   21.4829 H   0  0  0  0  0  0  0  0  0  0  0  0
  -10.9202  -35.4443   23.2621 H   0  0  0  0  0  0  0  0  0  0  0  0
  -13.7008  -31.8378   27.6705 H   0  0  0  0  0  0  0  0  0  0  0  0
  -14.4257  -30.8959   26.4552 H   0  0  0  0  0  0  0  0  0  0  0  0
  -12.9917  -29.4728   26.3118 H   0  0  0  0  0  0  0  0  0  0  0  0
  -10.4036  -29.4490   27.8282 H   0  0  0  0  0  0  0  0  0  0  0  0
  -10.3943  -28.0393   26.2350 H   0  0  0  0  0  0  0  0  0  0  0  0
  -10.2689  -27.1788   27.7001 H   0  0  0  0  0  0  0  0  0  0  0  0
  -11.7717  -27.1459   26.6799 H   0  0  0  0  0  0  0  0  0  0  0  0
  -12.5534  -27.9383   29.7542 H   0  0  0  0  0  0  0  0  0  0  0  0
  -12.5173  -29.3856   30.8616 H   0  0  0  0  0  0  0  0  0  0  0  0
  -10.3058  -28.0743   30.2708 H   0  0  0  0  0  0  0  0  0  0  0  0
  -10.5500  -25.7994   33.1618 H   0  0  0  0  0  0  0  0  0  0  0  0
   -9.3068  -23.7623   32.5676 H   0  0  0  0  0  0  0  0  0  0  0  0
   -7.0318  -26.3142   30.2466 H   0  0  0  0  0  0  0  0  0  0  0  0
   -8.7452  -28.0348   30.0111 H   0  0  0  0  0  0  0  0  0  0  0  0
  -15.7206  -34.1720   22.8272 H   0  0  0  0  0  0  0  0  0  0  0  0
  1  2  1  0
  2  3  2  0
  3  4  1  0
  4  5  2  0
  5  6  1  0
  6  7  1  0
  7  8  1  0
  8  9  1  0
  9 10  1  0
 10 11  1  0
 10 12  1  0
 12 13  1  0
 13 14  1  0
 14 15  2  0
 14 16  1  0
 16 17  2  0
 17 18  1  0
 18 19  2  0
 19 20  1  0
 20 21  2  0
  7 22  2  0
 22 23  1  0
 23 24  2  0
 24  2  1  0
 23  5  1  0
 21 16  1  0
  1 25  1  0
  1 26  1  0
  1 27  1  0
  3 28  1  0
  4 29  1  0
  8 30  1  0
  8 31  1  0
  9 32  1  0
 10 33  1  0
 11 34  1  0
 11 35  1  0
 11 36  1  0
 12 37  1  0
 12 38  1  0
 13 39  1  0
 17 40  1  0
 18 41  1  0
 20 42  1  0
 21 43  1  0
 24 44  1  0
M  END
>  <Energy>  (1388) 
442.00938925838989

>  <compound_id>  (1388) 
6754

>  <target_id>  (1388) 
1

>  <reference_id>  (1388) 
68

>  <inspiration_ids>  (1388) 
[68, 82]

>  <energy_score>  (1388) 
305.53399412400574

>  <distance_score>  (1388) 
4.9268224143511175

>  <path>  (1388) 
/opt/xchem-fragalysis-2/maxwin/BulkDock/SCRATCH/511018/C6754-P68/C6754-P68.minimised.mol

>  <scratch_subdir>  (1388) 
/opt/xchem-fragalysis-2/maxwin/BulkDock/SCRATCH/511018/C6754-P68

>  <fragmenstein_runtime>  (1388) 
12.791494846343994

>  <fragmenstein_outcome>  (1388) 
too moved

>  <fragmenstein_mode>  (1388) 
expansion

>  <fragmenstein_error>  (1388) 


$$$$
C6754-P82
     RDKit          3D

 44 46  0  0  0  0  0  0  0  0999 V2000
   -7.6995  -38.5086   24.9848 C   0  0  0  0  0  0  0  0  0  0  0  0
   -8.3991  -37.2698   24.5027 C   0  0  0  0  0  0  0  0  0  0  0  0
   -8.1032  -36.7328   23.2454 C   0  0  0  0  0  0  0  0  0  0  0  0
   -8.7481  -35.6004   22.7636 C   0  0  0  0  0  0  0  0  0  0  0  0
   -9.7194  -35.0328   23.5856 C   0  0  0  0  0  0  0  0  0  0  0  0
  -10.6927  -33.6792   23.2757 S   0  0  0  0  0  0  0  0  0  0  0  0
  -11.4950  -33.8359   24.8132 C   0  0  0  0  0  0  0  0  0  0  0  0
  -12.8025  -32.9991   25.1022 C   0  0  0  0  0  0  0  0  0  0  0  0
  -13.1475  -32.1755   26.3014 N   0  0  0  0  0  0  0  0  0  0  0  0
  -12.5240  -30.9695   26.8902 C   0  0  0  0  0  0  0  0  0  0  0  0
  -11.0175  -30.9378   26.7891 C   0  0  0  0  0  0  0  0  0  0  0  0
  -13.1187  -29.5191   26.6903 C   0  0  0  0  0  0  0  0  0  0  0  0
  -12.6184  -28.4780   27.6410 N   0  0  0  0  0  0  0  0  0  0  0  0
  -12.3060  -26.9638   27.4142 C   0  0  0  0  0  0  0  0  0  0  0  0
  -12.4672  -26.2895   26.4698 O   0  0  0  0  0  0  0  0  0  0  0  0
  -11.7957  -26.1940   28.6659 C   0  0  0  0  0  0  0  0  0  0  0  0
  -11.1958  -26.7317   29.8047 C   0  0  0  0  0  0  0  0  0  0  0  0
  -10.7792  -25.9275   30.8692 C   0  0  0  0  0  0  0  0  0  0  0  0
  -10.9662  -24.6091   30.9022 N   0  0  0  0  0  0  0  0  0  0  0  0
  -11.5680  -24.0831   29.8159 C   0  0  0  0  0  0  0  0  0  0  0  0
  -11.9583  -24.8080   28.6921 C   0  0  0  0  0  0  0  0  0  0  0  0
  -11.0526  -34.8641   25.5151 N   0  0  0  0  0  0  0  0  0  0  0  0
  -10.0488  -35.5413   24.8361 C   0  0  0  0  0  0  0  0  0  0  0  0
   -9.3792  -36.6789   25.3040 C   0  0  0  0  0  0  0  0  0  0  0  0
   -6.8020  -38.7168   24.3931 H   0  0  0  0  0  0  0  0  0  0  0  0
   -8.3700  -39.3703   24.9093 H   0  0  0  0  0  0  0  0  0  0  0  0
   -7.3842  -38.3882   26.0266 H   0  0  0  0  0  0  0  0  0  0  0  0
   -7.3406  -37.1988   22.6219 H   0  0  0  0  0  0  0  0  0  0  0  0
   -8.4982  -35.1791   21.7956 H   0  0  0  0  0  0  0  0  0  0  0  0
  -13.5512  -33.8064   25.1459 H   0  0  0  0  0  0  0  0  0  0  0  0
  -13.1112  -32.4521   24.2177 H   0  0  0  0  0  0  0  0  0  0  0  0
  -14.1621  -32.1182   26.3777 H   0  0  0  0  0  0  0  0  0  0  0  0
  -12.7450  -31.1138   27.9557 H   0  0  0  0  0  0  0  0  0  0  0  0
  -10.6343  -29.9582   26.4993 H   0  0  0  0  0  0  0  0  0  0  0  0
  -10.5786  -31.1576   27.7378 H   0  0  0  0  0  0  0  0  0  0  0  0
  -10.6135  -31.6756   26.1027 H   0  0  0  0  0  0  0  0  0  0  0  0
  -14.2028  -29.5554   26.8448 H   0  0  0  0  0  0  0  0  0  0  0  0
  -12.9451  -29.1467   25.6777 H   0  0  0  0  0  0  0  0  0  0  0  0
  -12.4307  -28.7206   28.5999 H   0  0  0  0  0  0  0  0  0  0  0  0
  -11.0319  -27.7805   29.9152 H   0  0  0  0  0  0  0  0  0  0  0  0
  -10.2891  -26.3551   31.7389 H   0  0  0  0  0  0  0  0  0  0  0  0
  -11.7345  -23.0090   29.8543 H   0  0  0  0  0  0  0  0  0  0  0  0
  -12.4156  -24.2789   27.8610 H   0  0  0  0  0  0  0  0  0  0  0  0
   -9.6377  -37.0855   26.2766 H   0  0  0  0  0  0  0  0  0  0  0  0
  1  2  1  0
  2  3  2  0
  3  4  1  0
  4  5  2  0
  5  6  1  0
  6  7  1  0
  7  8  1  0
  8  9  1  0
  9 10  1  0
 10 11  1  0
 10 12  1  0
 12 13  1  0
 13 14  1  0
 14 15  2  0
 14 16  1  0
 16 17  2  0
 17 18  1  0
 18 19  2  0
 19 20  1  0
 20 21  2  0
  7 22  2  0
 22 23  1  0
 23 24  2  0
 24  2  1  0
 23  5  1  0
 21 16  1  0
  1 25  1  0
  1 26  1  0
  1 27  1  0
  3 28  1  0
  4 29  1  0
  8 30  1  0
  8 31  1  0
  9 32  1  0
 10 33  1  0
 11 34  1  0
 11 35  1  0
 11 36  1  0
 12 37  1  0
 12 38  1  0
 13 39  1  0
 17 40  1  0
 18 41  1  0
 20 42  1  0
 21 43  1  0
 24 44  1  0
M  END
>  <Energy>  (1389) 
111.01583584151217

>  <compound_id>  (1389) 
6754

>  <target_id>  (1389) 
1

>  <reference_id>  (1389) 
82

>  <inspiration_ids>  (1389) 
[68, 82]

>  <energy_score>  (1389) 
-17.609802941636644

>  <distance_score>  (1389) 
3.961114178538536

>  <path>  (1389) 
/opt/xchem-fragalysis-2/maxwin/BulkDock/SCRATCH/511018/C6754-P82/C6754-P82.minimised.mol

>  <scratch_subdir>  (1389) 
/opt/xchem-fragalysis-2/maxwin/BulkDock/SCRATCH/511018/C6754-P82

>  <fragmenstein_runtime>  (1389) 
6.531584024429321

>  <fragmenstein_outcome>  (1389) 
too moved

>  <fragmenstein_mode>  (1389) 
expansion

>  <fragmenstein_error>  (1389) 


$$$$
C6755-P68
     RDKit          3D

 42 44  0  0  0  0  0  0  0  0999 V2000
   -9.6137  -25.6339   28.5513 C   0  0  0  0  0  0  0  0  0  0  0  0
   -8.7502  -26.6559   30.0823 C   0  0  0  0  0  0  0  0  0  0  0  0
   -8.9248  -28.5395   29.2744 C   0  0  0  0  0  0  0  0  0  0  0  0
   -9.5607  -30.0233   28.0137 C   0  0  0  0  0  0  0  0  0  0  0  0
  -10.0248  -29.5434   27.0268 O   0  0  0  0  0  0  0  0  0  0  0  0
   -9.2317  -31.8520   28.4694 N   0  0  0  0  0  0  0  0  0  0  0  0
   -9.3975  -33.5105   27.4672 C   0  0  0  0  0  0  0  0  0  0  0  0
  -10.1131  -34.0508   25.9412 C   0  0  0  0  0  0  0  0  0  0  0  0
   -9.6321  -35.4161   25.5226 C   0  0  0  0  0  0  0  0  0  0  0  0
   -9.8598  -36.5347   26.1711 N   0  0  0  0  0  0  0  0  0  0  0  0
   -9.4735  -37.6091   25.3806 C   0  0  0  0  0  0  0  0  0  0  0  0
   -9.6082  -38.9672   25.7159 C   0  0  0  0  0  0  0  0  0  0  0  0
   -9.2288  -39.9473   24.7948 C   0  0  0  0  0  0  0  0  0  0  0  0
   -8.7095  -39.5939   23.5533 C   0  0  0  0  0  0  0  0  0  0  0  0
   -8.5404  -38.2551   23.2044 C   0  0  0  0  0  0  0  0  0  0  0  0
   -8.9342  -37.2838   24.1349 C   0  0  0  0  0  0  0  0  0  0  0  0
   -8.8727  -35.5855   23.9840 S   0  0  0  0  0  0  0  0  0  0  0  0
   -8.6961  -24.9460   30.8904 C   0  0  0  0  0  0  0  0  0  0  0  0
   -8.5279  -25.0514   32.1255 C   0  0  0  0  0  0  0  0  0  0  0  0
   -9.6440  -25.1290   32.6771 C   0  0  0  0  0  0  0  0  0  0  0  0
   -9.8813  -23.9183   32.7200 N   0  0  0  0  0  0  0  0  0  0  0  0
  -10.7738  -23.6780   31.9040 C   0  0  0  0  0  0  0  0  0  0  0  0
  -10.1461  -24.0104   30.8437 C   0  0  0  0  0  0  0  0  0  0  0  0
   -9.0966  -24.9458   27.8502 H   0  0  0  0  0  0  0  0  0  0  0  0
  -10.0690  -24.6844   28.7689 H   0  0  0  0  0  0  0  0  0  0  0  0
  -10.0753  -26.3556   27.8579 H   0  0  0  0  0  0  0  0  0  0  0  0
   -7.6403  -26.6210   30.1075 H   0  0  0  0  0  0  0  0  0  0  0  0
   -9.8313  -28.0182   28.9031 H   0  0  0  0  0  0  0  0  0  0  0  0
   -8.7049  -29.1498   30.1025 H   0  0  0  0  0  0  0  0  0  0  0  0
   -8.8901  -31.9527   29.4491 H   0  0  0  0  0  0  0  0  0  0  0  0
   -8.3624  -33.5979   27.0497 H   0  0  0  0  0  0  0  0  0  0  0  0
   -9.1558  -34.3134   28.1460 H   0  0  0  0  0  0  0  0  0  0  0  0
   -9.8540  -33.4182   25.0771 H   0  0  0  0  0  0  0  0  0  0  0  0
  -11.2060  -34.0167   25.9282 H   0  0  0  0  0  0  0  0  0  0  0  0
  -10.0071  -39.2467   26.6859 H   0  0  0  0  0  0  0  0  0  0  0  0
   -9.3400  -40.9965   25.0587 H   0  0  0  0  0  0  0  0  0  0  0  0
   -8.4260  -40.3717   22.8480 H   0  0  0  0  0  0  0  0  0  0  0  0
   -8.1271  -37.9753   22.2406 H   0  0  0  0  0  0  0  0  0  0  0  0
   -7.9103  -24.4243   32.7568 H   0  0  0  0  0  0  0  0  0  0  0  0
  -10.2968  -25.9430   32.8908 H   0  0  0  0  0  0  0  0  0  0  0  0
  -11.5821  -24.2377   32.1485 H   0  0  0  0  0  0  0  0  0  0  0  0
  -10.4283  -23.2530   30.0196 H   0  0  0  0  0  0  0  0  0  0  0  0
  1  2  1  0
  2  3  1  0
  3  4  1  0
  4  5  2  0
  4  6  1  0
  6  7  1  0
  7  8  1  0
  8  9  1  0
  9 10  2  0
 10 11  1  0
 11 12  2  0
 12 13  1  0
 13 14  2  0
 14 15  1  0
 15 16  2  0
 16 17  1  0
  2 18  1  0
 18 19  2  0
 19 20  1  0
 20 21  2  0
 21 22  1  0
 22 23  2  0
 17  9  1  0
 23 18  1  0
 16 11  1  0
  1 24  1  0
  1 25  1  0
  1 26  1  0
  2 27  1  0
  3 28  1  0
  3 29  1  0
  6 30  1  0
  7 31  1  0
  7 32  1  0
  8 33  1  0
  8 34  1  0
 12 35  1  0
 13 36  1  0
 14 37  1  0
 15 38  1  0
 19 39  1  0
 20 40  1  0
 22 41  1  0
 23 42  1  0
M  END
>  <Energy>  (1390) 
841.77137847076415

>  <compound_id>  (1390) 
6755

>  <target_id>  (1390) 
1

>  <reference_id>  (1390) 
68

>  <inspiration_ids>  (1390) 
[68, 82]

>  <energy_score>  (1390) 
743.3455882232665

>  <distance_score>  (1390) 
3.8166726917636296

>  <path>  (1390) 
/opt/xchem-fragalysis-2/maxwin/BulkDock/SCRATCH/511018/C6755-P68/C6755-P68.minimised.mol

>  <scratch_subdir>  (1390) 
/opt/xchem-fragalysis-2/maxwin/BulkDock/SCRATCH/511018/C6755-P68

>  <fragmenstein_runtime>  (1390) 
14.628308773040771

>  <fragmenstein_outcome>  (1390) 
too moved

>  <fragmenstein_mode>  (1390) 
expansion

>  <fragmenstein_error>  (1390) 


$$$$
C6755-P82
     RDKit          3D

 42 44  0  0  0  0  0  0  0  0999 V2000
  -11.6805  -24.8061   27.2849 C   0  0  0  0  0  0  0  0  0  0  0  0
  -12.2230  -25.8226   28.3008 C   0  0  0  0  0  0  0  0  0  0  0  0
  -11.9425  -27.3366   27.7239 C   0  0  0  0  0  0  0  0  0  0  0  0
  -13.0762  -28.3755   27.2760 C   0  0  0  0  0  0  0  0  0  0  0  0
  -14.2086  -28.0330   27.2752 O   0  0  0  0  0  0  0  0  0  0  0  0
  -12.4260  -29.8196   26.9866 N   0  0  0  0  0  0  0  0  0  0  0  0
  -13.0796  -31.1468   26.7353 C   0  0  0  0  0  0  0  0  0  0  0  0
  -12.9950  -32.2427   25.5780 C   0  0  0  0  0  0  0  0  0  0  0  0
  -11.8384  -33.2358   25.1280 C   0  0  0  0  0  0  0  0  0  0  0  0
  -10.6172  -32.9482   24.7259 N   0  0  0  0  0  0  0  0  0  0  0  0
  -10.0449  -33.9963   24.0032 C   0  0  0  0  0  0  0  0  0  0  0  0
   -8.8221  -33.9572   23.3207 C   0  0  0  0  0  0  0  0  0  0  0  0
   -8.3774  -35.0819   22.6308 C   0  0  0  0  0  0  0  0  0  0  0  0
   -9.1494  -36.2316   22.5793 C   0  0  0  0  0  0  0  0  0  0  0  0
  -10.3777  -36.2897   23.2276 C   0  0  0  0  0  0  0  0  0  0  0  0
  -10.7996  -35.1561   23.9330 C   0  0  0  0  0  0  0  0  0  0  0  0
  -12.2557  -34.9022   24.7900 S   0  0  0  0  0  0  0  0  0  0  0  0
  -11.6205  -25.4846   29.6890 C   0  0  0  0  0  0  0  0  0  0  0  0
  -12.2505  -24.6389   30.6159 C   0  0  0  0  0  0  0  0  0  0  0  0
  -11.7099  -24.4222   31.8827 C   0  0  0  0  0  0  0  0  0  0  0  0
  -10.5435  -24.9417   32.2880 N   0  0  0  0  0  0  0  0  0  0  0  0
   -9.9188  -25.7096   31.3772 C   0  0  0  0  0  0  0  0  0  0  0  0
  -10.3947  -25.9899   30.0971 C   0  0  0  0  0  0  0  0  0  0  0  0
  -12.1128  -24.9815   26.2940 H   0  0  0  0  0  0  0  0  0  0  0  0
  -10.5910  -24.8702   27.1979 H   0  0  0  0  0  0  0  0  0  0  0  0
  -11.9295  -23.7806   27.5809 H   0  0  0  0  0  0  0  0  0  0  0  0
  -13.2977  -25.6651   28.3204 H   0  0  0  0  0  0  0  0  0  0  0  0
  -11.5112  -27.8612   28.5729 H   0  0  0  0  0  0  0  0  0  0  0  0
  -11.2336  -27.2745   26.8922 H   0  0  0  0  0  0  0  0  0  0  0  0
  -11.4127  -29.7449   26.9899 H   0  0  0  0  0  0  0  0  0  0  0  0
  -14.1435  -30.8679   26.7363 H   0  0  0  0  0  0  0  0  0  0  0  0
  -12.9583  -31.6692   27.6825 H   0  0  0  0  0  0  0  0  0  0  0  0
  -13.4274  -31.8250   24.6722 H   0  0  0  0  0  0  0  0  0  0  0  0
  -13.7877  -32.9417   25.8970 H   0  0  0  0  0  0  0  0  0  0  0  0
   -8.2270  -33.0452   23.3169 H   0  0  0  0  0  0  0  0  0  0  0  0
   -7.4208  -35.0373   22.1124 H   0  0  0  0  0  0  0  0  0  0  0  0
   -8.7910  -37.0937   22.0213 H   0  0  0  0  0  0  0  0  0  0  0  0
  -10.9903  -37.1842   23.1821 H   0  0  0  0  0  0  0  0  0  0  0  0
  -13.2003  -24.1760   30.3984 H   0  0  0  0  0  0  0  0  0  0  0  0
  -12.2361  -23.8117   32.6104 H   0  0  0  0  0  0  0  0  0  0  0  0
   -8.9727  -26.1150   31.7138 H   0  0  0  0  0  0  0  0  0  0  0  0
   -9.7941  -26.6089   29.4452 H   0  0  0  0  0  0  0  0  0  0  0  0
  1  2  1  0
  2  3  1  0
  3  4  1  0
  4  5  2  0
  4  6  1  0
  6  7  1  0
  7  8  1  0
  8  9  1  0
  9 10  2  0
 10 11  1  0
 11 12  2  0
 12 13  1  0
 13 14  2  0
 14 15  1  0
 15 16  2  0
 16 17  1  0
  2 18  1  0
 18 19  2  0
 19 20  1  0
 20 21  2  0
 21 22  1  0
 22 23  2  0
 17  9  1  0
 23 18  1  0
 16 11  1  0
  1 24  1  0
  1 25  1  0
  1 26  1  0
  2 27  1  0
  3 28  1  0
  3 29  1  0
  6 30  1  0
  7 31  1  0
  7 32  1  0
  8 33  1  0
  8 34  1  0
 12 35  1  0
 13 36  1  0
 14 37  1  0
 15 38  1  0
 19 39  1  0
 20 40  1  0
 22 41  1  0
 23 42  1  0
M  END
>  <Energy>  (1391) 
99.658665138473935

>  <compound_id>  (1391) 
6755

>  <target_id>  (1391) 
1

>  <reference_id>  (1391) 
82

>  <inspiration_ids>  (1391) 
[68, 82]

>  <energy_score>  (1391) 
-2.6836267624823904

>  <distance_score>  (1391) 
3.5608771040409013

>  <path>  (1391) 
/opt/xchem-fragalysis-2/maxwin/BulkDock/SCRATCH/511018/C6755-P82/C6755-P82.minimised.mol

>  <scratch_subdir>  (1391) 
/opt/xchem-fragalysis-2/maxwin/BulkDock/SCRATCH/511018/C6755-P82

>  <fragmenstein_runtime>  (1391) 
3.667253017425537

>  <fragmenstein_outcome>  (1391) 
too moved

>  <fragmenstein_mode>  (1391) 
expansion

>  <fragmenstein_error>  (1391) 


$$$$
C6756-P68
     RDKit          3D

 35 38  0  0  0  0  0  0  0  0999 V2000
  -16.1446  -35.3128   23.7301 F   0  0  0  0  0  0  0  0  0  0  0  0
  -16.6222  -34.0420   23.7049 C   0  0  0  0  0  0  0  0  0  0  0  0
  -17.0490  -33.8247   22.4326 F   0  0  0  0  0  0  0  0  0  0  0  0
  -15.5151  -33.0697   24.0238 C   0  0  0  0  0  0  0  0  0  0  0  0
  -15.1901  -33.1037   25.4292 N   0  0  0  0  0  0  0  0  0  0  0  0
  -15.8856  -32.3031   26.2768 N   0  0  0  0  0  0  0  0  0  0  0  0
  -15.5025  -32.7530   27.4836 C   0  0  0  0  0  0  0  0  0  0  0  0
  -15.9801  -32.2166   28.7658 C   0  0  0  0  0  0  0  0  0  0  0  0
  -15.4025  -32.6179   29.9671 C   0  0  0  0  0  0  0  0  0  0  0  0
  -15.7275  -31.9641   31.1462 C   0  0  0  0  0  0  0  0  0  0  0  0
  -16.6630  -31.0005   31.2193 N   0  0  0  0  0  0  0  0  0  0  0  0
  -17.3278  -30.7321   30.0788 C   0  0  0  0  0  0  0  0  0  0  0  0
  -17.0205  -31.2959   28.8450 C   0  0  0  0  0  0  0  0  0  0  0  0
  -14.6051  -33.7997   27.3940 N   0  0  0  0  0  0  0  0  0  0  0  0
  -14.3667  -33.9711   26.1015 C   0  0  0  0  0  0  0  0  0  0  0  0
  -13.4924  -35.0057   25.5278 C   0  0  0  0  0  0  0  0  0  0  0  0
  -13.6279  -36.3368   25.9612 C   0  0  0  0  0  0  0  0  0  0  0  0
  -12.7756  -37.3372   25.5041 C   0  0  0  0  0  0  0  0  0  0  0  0
  -11.7473  -37.0463   24.6105 C   0  0  0  0  0  0  0  0  0  0  0  0
  -11.5985  -35.7206   24.1807 C   0  0  0  0  0  0  0  0  0  0  0  0
  -10.4077  -35.0956   23.1030 S   0  0  0  0  0  0  0  0  0  0  0  0
  -11.0905  -33.5454   23.2826 C   0  0  0  0  0  0  0  0  0  0  0  0
  -12.1405  -33.4423   24.0700 N   0  0  0  0  0  0  0  0  0  0  0  0
  -12.4485  -34.6888   24.6115 C   0  0  0  0  0  0  0  0  0  0  0  0
  -17.4810  -33.9725   24.3788 H   0  0  0  0  0  0  0  0  0  0  0  0
  -14.6215  -33.2875   23.4374 H   0  0  0  0  0  0  0  0  0  0  0  0
  -15.8269  -32.0500   23.7787 H   0  0  0  0  0  0  0  0  0  0  0  0
  -14.6849  -33.4308   29.9883 H   0  0  0  0  0  0  0  0  0  0  0  0
  -15.2361  -32.2240   32.0800 H   0  0  0  0  0  0  0  0  0  0  0  0
  -18.1322  -30.0077   30.1761 H   0  0  0  0  0  0  0  0  0  0  0  0
  -17.5795  -31.0048   27.9616 H   0  0  0  0  0  0  0  0  0  0  0  0
  -14.4104  -36.5915   26.6759 H   0  0  0  0  0  0  0  0  0  0  0  0
  -12.9070  -38.3599   25.8543 H   0  0  0  0  0  0  0  0  0  0  0  0
  -11.0751  -37.8276   24.2651 H   0  0  0  0  0  0  0  0  0  0  0  0
  -10.6741  -32.6921   22.7639 H   0  0  0  0  0  0  0  0  0  0  0  0
  1  2  1  0
  2  3  1  0
  2  4  1  0
  4  5  1  0
  5  6  1  0
  6  7  2  0
  7  8  1  0
  8  9  2  0
  9 10  1  0
 10 11  2  0
 11 12  1  0
 12 13  2  0
  7 14  1  0
 14 15  2  0
 15 16  1  0
 16 17  2  0
 17 18  1  0
 18 19  2  0
 19 20  1  0
 20 21  1  0
 21 22  1  0
 22 23  2  0
 23 24  1  0
 15  5  1  0
 24 16  1  0
 13  8  1  0
 24 20  2  0
  2 25  1  0
  4 26  1  0
  4 27  1  0
  9 28  1  0
 10 29  1  0
 12 30  1  0
 13 31  1  0
 17 32  1  0
 18 33  1  0
 19 34  1  0
 22 35  1  0
M  END
>  <Energy>  (1392) 
36.257201998568412

>  <compound_id>  (1392) 
6756

>  <target_id>  (1392) 
1

>  <reference_id>  (1392) 
68

>  <inspiration_ids>  (1392) 
[68, 82]

>  <energy_score>  (1392) 
-77.02442708468027

>  <distance_score>  (1392) 
7.024997416260701

>  <path>  (1392) 
/opt/xchem-fragalysis-2/maxwin/BulkDock/SCRATCH/511018/C6756-P68/C6756-P68.minimised.mol

>  <scratch_subdir>  (1392) 
/opt/xchem-fragalysis-2/maxwin/BulkDock/SCRATCH/511018/C6756-P68

>  <fragmenstein_runtime>  (1392) 
12.018151998519897

>  <fragmenstein_outcome>  (1392) 
too moved

>  <fragmenstein_mode>  (1392) 
expansion

>  <fragmenstein_error>  (1392) 


$$$$
C6756-P82
     RDKit          3D

 35 38  0  0  0  0  0  0  0  0999 V2000
  -17.1206  -30.7604   25.3069 F   0  0  0  0  0  0  0  0  0  0  0  0
  -15.9603  -30.1816   25.7229 C   0  0  0  0  0  0  0  0  0  0  0  0
  -15.5290  -29.4290   24.6762 F   0  0  0  0  0  0  0  0  0  0  0  0
  -14.9588  -31.2791   26.0129 C   0  0  0  0  0  0  0  0  0  0  0  0
  -13.6942  -30.7999   26.5291 N   0  0  0  0  0  0  0  0  0  0  0  0
  -13.7248  -29.6346   27.2595 N   0  0  0  0  0  0  0  0  0  0  0  0
  -12.4494  -29.2322   27.3110 C   0  0  0  0  0  0  0  0  0  0  0  0
  -12.0417  -27.8637   27.9224 C   0  0  0  0  0  0  0  0  0  0  0  0
  -11.8376  -26.7066   27.1788 C   0  0  0  0  0  0  0  0  0  0  0  0
  -11.3433  -25.5358   27.7932 C   0  0  0  0  0  0  0  0  0  0  0  0
  -11.0055  -25.4168   29.0879 N   0  0  0  0  0  0  0  0  0  0  0  0
  -11.2489  -26.4955   29.8221 C   0  0  0  0  0  0  0  0  0  0  0  0
  -11.7995  -27.6709   29.2909 C   0  0  0  0  0  0  0  0  0  0  0  0
  -11.6163  -30.3016   26.7406 N   0  0  0  0  0  0  0  0  0  0  0  0
  -12.4059  -31.3292   26.3058 C   0  0  0  0  0  0  0  0  0  0  0  0
  -12.0845  -32.7832   25.4997 C   0  0  0  0  0  0  0  0  0  0  0  0
  -13.0899  -33.7853   25.5724 C   0  0  0  0  0  0  0  0  0  0  0  0
  -13.0579  -35.0163   24.9021 C   0  0  0  0  0  0  0  0  0  0  0  0
  -11.9949  -35.3878   24.1031 C   0  0  0  0  0  0  0  0  0  0  0  0
  -10.9260  -34.5068   24.0299 C   0  0  0  0  0  0  0  0  0  0  0  0
   -9.4901  -34.7995   23.0954 S   0  0  0  0  0  0  0  0  0  0  0  0
   -8.9298  -33.2774   23.5664 C   0  0  0  0  0  0  0  0  0  0  0  0
   -9.6911  -32.6254   24.4291 N   0  0  0  0  0  0  0  0  0  0  0  0
  -10.9109  -33.2567   24.7012 C   0  0  0  0  0  0  0  0  0  0  0  0
  -16.1864  -29.5286   26.5699 H   0  0  0  0  0  0  0  0  0  0  0  0
  -15.3684  -31.9771   26.7493 H   0  0  0  0  0  0  0  0  0  0  0  0
  -14.7671  -31.8073   25.0754 H   0  0  0  0  0  0  0  0  0  0  0  0
  -12.0131  -26.7041   26.1074 H   0  0  0  0  0  0  0  0  0  0  0  0
  -11.1782  -24.6392   27.1976 H   0  0  0  0  0  0  0  0  0  0  0  0
  -10.9960  -26.4023   30.8739 H   0  0  0  0  0  0  0  0  0  0  0  0
  -12.0300  -28.4633   29.9865 H   0  0  0  0  0  0  0  0  0  0  0  0
  -13.9443  -33.6437   26.2297 H   0  0  0  0  0  0  0  0  0  0  0  0
  -13.8884  -35.7110   25.0297 H   0  0  0  0  0  0  0  0  0  0  0  0
  -11.9855  -36.3440   23.5886 H   0  0  0  0  0  0  0  0  0  0  0  0
   -7.9884  -32.8625   23.2167 H   0  0  0  0  0  0  0  0  0  0  0  0
  1  2  1  0
  2  3  1  0
  2  4  1  0
  4  5  1  0
  5  6  1  0
  6  7  2  0
  7  8  1  0
  8  9  2  0
  9 10  1  0
 10 11  2  0
 11 12  1  0
 12 13  2  0
  7 14  1  0
 14 15  2  0
 15 16  1  0
 16 17  2  0
 17 18  1  0
 18 19  2  0
 19 20  1  0
 20 21  1  0
 21 22  1  0
 22 23  2  0
 23 24  1  0
 15  5  1  0
 24 16  1  0
 13  8  1  0
 24 20  2  0
  2 25  1  0
  4 26  1  0
  4 27  1  0
  9 28  1  0
 10 29  1  0
 12 30  1  0
 13 31  1  0
 17 32  1  0
 18 33  1  0
 19 34  1  0
 22 35  1  0
M  END
>  <Energy>  (1393) 
103.38082431269373

>  <compound_id>  (1393) 
6756

>  <target_id>  (1393) 
1

>  <reference_id>  (1393) 
82

>  <inspiration_ids>  (1393) 
[68, 82]

>  <energy_score>  (1393) 
-10.03570316756759

>  <distance_score>  (1393) 
4.42480313696521

>  <path>  (1393) 
/opt/xchem-fragalysis-2/maxwin/BulkDock/SCRATCH/511018/C6756-P82/C6756-P82.minimised.mol

>  <scratch_subdir>  (1393) 
/opt/xchem-fragalysis-2/maxwin/BulkDock/SCRATCH/511018/C6756-P82

>  <fragmenstein_runtime>  (1393) 
3.091580867767334

>  <fragmenstein_outcome>  (1393) 
too moved

>  <fragmenstein_mode>  (1393) 
expansion

>  <fragmenstein_error>  (1393) 


$$$$
C6757-P68
     RDKit          3D

 41 43  0  0  0  0  0  0  0  0999 V2000
   -6.6107  -28.4370   27.1169 C   0  0  0  0  0  0  0  0  0  0  0  0
   -8.0897  -29.0261   25.8698 C   0  0  0  0  0  0  0  0  0  0  0  0
   -9.9232  -28.1198   26.2913 C   0  0  0  0  0  0  0  0  0  0  0  0
  -10.1454  -26.8222   27.4824 N   0  0  0  0  0  0  0  0  0  0  0  0
  -10.1107  -25.1566   27.3059 C   0  0  0  0  0  0  0  0  0  0  0  0
  -10.0054  -24.5101   26.2864 O   0  0  0  0  0  0  0  0  0  0  0  0
  -10.1168  -23.9991   28.8114 C   0  0  0  0  0  0  0  0  0  0  0  0
   -8.9968  -24.6145   29.0775 C   0  0  0  0  0  0  0  0  0  0  0  0
   -8.3657  -25.1869   30.5847 C   0  0  0  0  0  0  0  0  0  0  0  0
   -8.8737  -25.0324   31.8294 N   0  0  0  0  0  0  0  0  0  0  0  0
   -9.8975  -24.2406   31.8464 C   0  0  0  0  0  0  0  0  0  0  0  0
  -10.4090  -23.6974   30.5954 C   0  0  0  0  0  0  0  0  0  0  0  0
   -8.1270  -30.3529   24.1189 N   0  0  0  0  0  0  0  0  0  0  0  0
   -9.6737  -30.7288   22.9899 C   0  0  0  0  0  0  0  0  0  0  0  0
   -8.6730  -32.1254   24.2771 C   0  0  0  0  0  0  0  0  0  0  0  0
   -9.9052  -32.6902   24.0533 N   0  0  0  0  0  0  0  0  0  0  0  0
  -10.1456  -34.0510   24.1015 C   0  0  0  0  0  0  0  0  0  0  0  0
  -11.3402  -34.6825   23.7007 C   0  0  0  0  0  0  0  0  0  0  0  0
  -11.4508  -36.0723   23.7782 C   0  0  0  0  0  0  0  0  0  0  0  0
  -10.3883  -36.8277   24.2549 C   0  0  0  0  0  0  0  0  0  0  0  0
   -9.2068  -36.2098   24.6730 C   0  0  0  0  0  0  0  0  0  0  0  0
   -9.1174  -34.8101   24.5906 C   0  0  0  0  0  0  0  0  0  0  0  0
   -7.8590  -33.7830   25.0917 S   0  0  0  0  0  0  0  0  0  0  0  0
   -6.0196  -27.6314   26.6612 H   0  0  0  0  0  0  0  0  0  0  0  0
   -6.9651  -28.3831   28.1539 H   0  0  0  0  0  0  0  0  0  0  0  0
   -5.5830  -28.8785   27.2573 H   0  0  0  0  0  0  0  0  0  0  0  0
   -8.5213  -29.4963   26.7640 H   0  0  0  0  0  0  0  0  0  0  0  0
  -10.3688  -27.7007   25.3957 H   0  0  0  0  0  0  0  0  0  0  0  0
  -10.4175  -28.8431   26.9392 H   0  0  0  0  0  0  0  0  0  0  0  0
  -10.1578  -27.0556   28.4629 H   0  0  0  0  0  0  0  0  0  0  0  0
   -8.3560  -23.8482   28.5279 H   0  0  0  0  0  0  0  0  0  0  0  0
   -7.6884  -26.0283   30.5226 H   0  0  0  0  0  0  0  0  0  0  0  0
  -10.1980  -23.8842   32.7567 H   0  0  0  0  0  0  0  0  0  0  0  0
  -11.0740  -22.7780   30.7139 H   0  0  0  0  0  0  0  0  0  0  0  0
  -10.6895  -31.0993   23.1900 H   0  0  0  0  0  0  0  0  0  0  0  0
   -9.7000  -31.7601   22.4416 H   0  0  0  0  0  0  0  0  0  0  0  0
   -9.7524  -30.1214   22.0376 H   0  0  0  0  0  0  0  0  0  0  0  0
  -12.1604  -34.0849   23.3170 H   0  0  0  0  0  0  0  0  0  0  0  0
  -12.3666  -36.5618   23.4561 H   0  0  0  0  0  0  0  0  0  0  0  0
  -10.4733  -37.9111   24.3114 H   0  0  0  0  0  0  0  0  0  0  0  0
   -8.3838  -36.8014   25.0621 H   0  0  0  0  0  0  0  0  0  0  0  0
  1  2  1  0
  2  3  1  0
  3  4  1  0
  4  5  1  0
  5  6  2  0
  5  7  1  0
  7  8  2  0
  8  9  1  0
  9 10  2  0
 10 11  1  0
 11 12  2  0
  2 13  1  0
 13 14  1  0
 13 15  1  0
 15 16  2  0
 16 17  1  0
 17 18  2  0
 18 19  1  0
 19 20  2  0
 20 21  1  0
 21 22  2  0
 22 23  1  0
 12  7  1  0
 23 15  1  0
 22 17  1  0
  1 24  1  0
  1 25  1  0
  1 26  1  0
  2 27  1  0
  3 28  1  0
  3 29  1  0
  4 30  1  0
  8 31  1  0
  9 32  1  0
 11 33  1  0
 12 34  1  0
 14 35  1  0
 14 36  1  0
 14 37  1  0
 18 38  1  0
 19 39  1  0
 20 40  1  0
 21 41  1  0
M  END
>  <Energy>  (1394) 
971.02734544650127

>  <compound_id>  (1394) 
6757

>  <target_id>  (1394) 
1

>  <reference_id>  (1394) 
68

>  <inspiration_ids>  (1394) 
[68, 82]

>  <energy_score>  (1394) 
876.7471823903616

>  <distance_score>  (1394) 
3.60351572656841

>  <path>  (1394) 
/opt/xchem-fragalysis-2/maxwin/BulkDock/SCRATCH/511018/C6757-P68/C6757-P68.minimised.mol

>  <scratch_subdir>  (1394) 
/opt/xchem-fragalysis-2/maxwin/BulkDock/SCRATCH/511018/C6757-P68

>  <fragmenstein_runtime>  (1394) 
11.215069770812988

>  <fragmenstein_outcome>  (1394) 
too moved

>  <fragmenstein_mode>  (1394) 
expansion

>  <fragmenstein_error>  (1394) 


$$$$
C6757-P82
     RDKit          3D

 41 43  0  0  0  0  0  0  0  0999 V2000
   -7.8646  -29.1737   25.5104 C   0  0  0  0  0  0  0  0  0  0  0  0
   -9.0848  -29.8803   25.1421 C   0  0  0  0  0  0  0  0  0  0  0  0
  -10.3403  -28.5937   25.2065 C   0  0  0  0  0  0  0  0  0  0  0  0
  -10.4610  -27.4427   26.1138 N   0  0  0  0  0  0  0  0  0  0  0  0
  -11.6155  -26.6939   26.5385 C   0  0  0  0  0  0  0  0  0  0  0  0
  -12.7623  -26.7659   26.2010 O   0  0  0  0  0  0  0  0  0  0  0  0
  -11.3656  -25.7271   27.6425 C   0  0  0  0  0  0  0  0  0  0  0  0
  -11.0414  -26.1786   28.9209 C   0  0  0  0  0  0  0  0  0  0  0  0
  -10.9690  -25.2577   29.9487 C   0  0  0  0  0  0  0  0  0  0  0  0
  -11.2096  -23.9447   29.7785 N   0  0  0  0  0  0  0  0  0  0  0  0
  -11.5766  -23.5403   28.5445 C   0  0  0  0  0  0  0  0  0  0  0  0
  -11.6669  -24.3829   27.4515 C   0  0  0  0  0  0  0  0  0  0  0  0
   -8.6925  -30.8511   23.8264 N   0  0  0  0  0  0  0  0  0  0  0  0
   -7.9775  -30.2522   22.7157 C   0  0  0  0  0  0  0  0  0  0  0  0
   -8.7817  -32.2615   23.7975 C   0  0  0  0  0  0  0  0  0  0  0  0
   -9.7114  -32.9067   24.4780 N   0  0  0  0  0  0  0  0  0  0  0  0
   -9.8169  -34.2370   24.0989 C   0  0  0  0  0  0  0  0  0  0  0  0
  -10.7128  -35.1803   24.6419 C   0  0  0  0  0  0  0  0  0  0  0  0
  -10.7116  -36.4937   24.1661 C   0  0  0  0  0  0  0  0  0  0  0  0
   -9.8308  -36.8743   23.1595 C   0  0  0  0  0  0  0  0  0  0  0  0
   -8.9302  -35.9577   22.6093 C   0  0  0  0  0  0  0  0  0  0  0  0
   -8.9430  -34.6422   23.0987 C   0  0  0  0  0  0  0  0  0  0  0  0
   -7.9830  -33.3065   22.6340 S   0  0  0  0  0  0  0  0  0  0  0  0
   -8.1223  -28.2276   25.9370 H   0  0  0  0  0  0  0  0  0  0  0  0
   -7.4559  -29.7404   26.2957 H   0  0  0  0  0  0  0  0  0  0  0  0
   -7.0582  -29.1332   24.7890 H   0  0  0  0  0  0  0  0  0  0  0  0
   -9.3755  -30.5798   25.9400 H   0  0  0  0  0  0  0  0  0  0  0  0
  -11.2284  -29.0600   25.6420 H   0  0  0  0  0  0  0  0  0  0  0  0
  -10.6022  -28.2193   24.2130 H   0  0  0  0  0  0  0  0  0  0  0  0
   -9.6368  -27.0549   26.5527 H   0  0  0  0  0  0  0  0  0  0  0  0
  -10.9157  -27.2241   29.1485 H   0  0  0  0  0  0  0  0  0  0  0  0
  -10.7312  -25.5616   30.9650 H   0  0  0  0  0  0  0  0  0  0  0  0
  -11.8162  -22.4845   28.4573 H   0  0  0  0  0  0  0  0  0  0  0  0
  -12.0067  -24.0092   26.4918 H   0  0  0  0  0  0  0  0  0  0  0  0
   -6.9489  -29.9950   22.9748 H   0  0  0  0  0  0  0  0  0  0  0  0
   -8.5401  -29.4105   22.3250 H   0  0  0  0  0  0  0  0  0  0  0  0
   -7.8761  -30.9293   21.8764 H   0  0  0  0  0  0  0  0  0  0  0  0
  -11.3983  -34.8772   25.4263 H   0  0  0  0  0  0  0  0  0  0  0  0
  -11.4040  -37.2189   24.5868 H   0  0  0  0  0  0  0  0  0  0  0  0
   -9.8381  -37.8997   22.7956 H   0  0  0  0  0  0  0  0  0  0  0  0
   -8.2381  -36.2538   21.8269 H   0  0  0  0  0  0  0  0  0  0  0  0
  1  2  1  0
  2  3  1  0
  3  4  1  0
  4  5  1  0
  5  6  2  0
  5  7  1  0
  7  8  2  0
  8  9  1  0
  9 10  2  0
 10 11  1  0
 11 12  2  0
  2 13  1  0
 13 14  1  0
 13 15  1  0
 15 16  2  0
 16 17  1  0
 17 18  2  0
 18 19  1  0
 19 20  2  0
 20 21  1  0
 21 22  2  0
 22 23  1  0
 12  7  1  0
 23 15  1  0
 22 17  1  0
  1 24  1  0
  1 25  1  0
  1 26  1  0
  2 27  1  0
  3 28  1  0
  3 29  1  0
  4 30  1  0
  8 31  1  0
  9 32  1  0
 11 33  1  0
 12 34  1  0
 14 35  1  0
 14 36  1  0
 14 37  1  0
 18 38  1  0
 19 39  1  0
 20 40  1  0
 21 41  1  0
M  END
>  <Energy>  (1395) 
96.091285215216189

>  <compound_id>  (1395) 
6757

>  <target_id>  (1395) 
1

>  <reference_id>  (1395) 
82

>  <inspiration_ids>  (1395) 
[68, 82]

>  <energy_score>  (1395) 
1.8111221590885407

>  <distance_score>  (1395) 
3.800390871515939

>  <path>  (1395) 
/opt/xchem-fragalysis-2/maxwin/BulkDock/SCRATCH/511018/C6757-P82/C6757-P82.minimised.mol

>  <scratch_subdir>  (1395) 
/opt/xchem-fragalysis-2/maxwin/BulkDock/SCRATCH/511018/C6757-P82

>  <fragmenstein_runtime>  (1395) 
8.069690942764282

>  <fragmenstein_outcome>  (1395) 
too moved

>  <fragmenstein_mode>  (1395) 
expansion

>  <fragmenstein_error>  (1395) 


$$$$
C6758-P68
     RDKit          3D

 41 43  0  0  0  0  0  0  0  0999 V2000
   -6.3302  -28.2243   26.8940 C   0  0  0  0  0  0  0  0  0  0  0  0
   -8.0100  -28.9917   25.9810 C   0  0  0  0  0  0  0  0  0  0  0  0
   -9.4920  -29.3105   27.3900 C   0  0  0  0  0  0  0  0  0  0  0  0
   -8.9064  -28.5025   28.4450 N   0  0  0  0  0  0  0  0  0  0  0  0
   -9.4959  -28.0194   30.0051 C   0  0  0  0  0  0  0  0  0  0  0  0
  -10.5403  -28.3473   30.6371 O   0  0  0  0  0  0  0  0  0  0  0  0
   -8.8322  -27.0027   30.6951 C   0  0  0  0  0  0  0  0  0  0  0  0
   -7.8303  -26.2594   30.4143 C   0  0  0  0  0  0  0  0  0  0  0  0
   -8.3185  -25.0473   30.5608 C   0  0  0  0  0  0  0  0  0  0  0  0
   -8.9919  -24.4700   31.5477 N   0  0  0  0  0  0  0  0  0  0  0  0
   -9.5090  -25.1770   32.3661 C   0  0  0  0  0  0  0  0  0  0  0  0
   -9.5213  -26.4533   31.8938 C   0  0  0  0  0  0  0  0  0  0  0  0
   -8.0245  -29.8737   24.0756 N   0  0  0  0  0  0  0  0  0  0  0  0
   -7.9415  -28.8541   23.0453 C   0  0  0  0  0  0  0  0  0  0  0  0
   -9.1690  -31.2466   23.5826 C   0  0  0  0  0  0  0  0  0  0  0  0
  -10.1662  -31.1977   22.6328 N   0  0  0  0  0  0  0  0  0  0  0  0
  -10.8098  -32.3612   22.2143 C   0  0  0  0  0  0  0  0  0  0  0  0
  -11.7033  -32.4358   21.1258 C   0  0  0  0  0  0  0  0  0  0  0  0
  -12.2856  -33.6570   20.7705 C   0  0  0  0  0  0  0  0  0  0  0  0
  -11.9974  -34.8021   21.4964 C   0  0  0  0  0  0  0  0  0  0  0  0
  -11.1329  -34.7323   22.5828 C   0  0  0  0  0  0  0  0  0  0  0  0
  -10.8828  -35.8438   23.2893 F   0  0  0  0  0  0  0  0  0  0  0  0
  -10.5495  -33.5055   22.9285 C   0  0  0  0  0  0  0  0  0  0  0  0
   -9.5218  -33.1682   24.2263 S   0  0  0  0  0  0  0  0  0  0  0  0
   -5.7593  -27.5304   26.2767 H   0  0  0  0  0  0  0  0  0  0  0  0
   -5.4045  -28.8612   27.0660 H   0  0  0  0  0  0  0  0  0  0  0  0
   -6.4788  -28.0788   27.9544 H   0  0  0  0  0  0  0  0  0  0  0  0
   -7.7194  -29.4677   26.7825 H   0  0  0  0  0  0  0  0  0  0  0  0
  -10.3418  -28.7110   27.0634 H   0  0  0  0  0  0  0  0  0  0  0  0
   -9.7006  -30.3243   27.6539 H   0  0  0  0  0  0  0  0  0  0  0  0
   -8.0295  -28.1406   28.2916 H   0  0  0  0  0  0  0  0  0  0  0  0
   -6.9032  -26.6136   29.9726 H   0  0  0  0  0  0  0  0  0  0  0  0
   -8.7066  -24.6647   29.5737 H   0  0  0  0  0  0  0  0  0  0  0  0
  -10.2610  -24.6451   32.8301 H   0  0  0  0  0  0  0  0  0  0  0  0
  -10.4482  -27.0289   32.2347 H   0  0  0  0  0  0  0  0  0  0  0  0
   -8.5565  -28.0118   23.2442 H   0  0  0  0  0  0  0  0  0  0  0  0
   -8.4230  -29.1266   22.1129 H   0  0  0  0  0  0  0  0  0  0  0  0
   -6.9091  -28.4883   22.9431 H   0  0  0  0  0  0  0  0  0  0  0  0
  -11.9148  -31.5388   20.5499 H   0  0  0  0  0  0  0  0  0  0  0  0
  -12.9570  -33.7042   19.9162 H   0  0  0  0  0  0  0  0  0  0  0  0
  -12.4429  -35.7556   21.2292 H   0  0  0  0  0  0  0  0  0  0  0  0
  1  2  1  0
  2  3  1  0
  3  4  1  0
  4  5  1  0
  5  6  2  0
  5  7  1  0
  7  8  2  0
  8  9  1  0
  9 10  2  0
 10 11  1  0
 11 12  2  0
  2 13  1  0
 13 14  1  0
 13 15  1  0
 15 16  2  0
 16 17  1  0
 17 18  2  0
 18 19  1  0
 19 20  2  0
 20 21  1  0
 21 22  1  0
 21 23  2  0
 23 24  1  0
 12  7  1  0
 24 15  1  0
 23 17  1  0
  1 25  1  0
  1 26  1  0
  1 27  1  0
  2 28  1  0
  3 29  1  0
  3 30  1  0
  4 31  1  0
  8 32  1  0
  9 33  1  0
 11 34  1  0
 12 35  1  0
 14 36  1  0
 14 37  1  0
 14 38  1  0
 18 39  1  0
 19 40  1  0
 20 41  1  0
M  END
>  <Energy>  (1396) 
637.80211022582375

>  <compound_id>  (1396) 
6758

>  <target_id>  (1396) 
1

>  <reference_id>  (1396) 
68

>  <inspiration_ids>  (1396) 
[68, 82]

>  <energy_score>  (1396) 
529.5631360925795

>  <distance_score>  (1396) 
4.482675102831697

>  <path>  (1396) 
/opt/xchem-fragalysis-2/maxwin/BulkDock/SCRATCH/511018/C6758-P68/C6758-P68.minimised.mol

>  <scratch_subdir>  (1396) 
/opt/xchem-fragalysis-2/maxwin/BulkDock/SCRATCH/511018/C6758-P68

>  <fragmenstein_runtime>  (1396) 
15.762149810791016

>  <fragmenstein_outcome>  (1396) 
too moved

>  <fragmenstein_mode>  (1396) 
expansion

>  <fragmenstein_error>  (1396) 


$$$$
C6758-P82
     RDKit          3D

 41 43  0  0  0  0  0  0  0  0999 V2000
   -9.4939  -30.6631   26.1868 C   0  0  0  0  0  0  0  0  0  0  0  0
   -9.0104  -29.6240   25.1996 C   0  0  0  0  0  0  0  0  0  0  0  0
  -10.3181  -28.3709   25.1965 C   0  0  0  0  0  0  0  0  0  0  0  0
  -10.8263  -27.1685   25.9984 N   0  0  0  0  0  0  0  0  0  0  0  0
  -10.2710  -26.4858   27.1439 C   0  0  0  0  0  0  0  0  0  0  0  0
   -9.2288  -26.6345   27.7141 O   0  0  0  0  0  0  0  0  0  0  0  0
  -11.0969  -25.4530   27.8027 C   0  0  0  0  0  0  0  0  0  0  0  0
  -11.2271  -25.5181   29.1985 C   0  0  0  0  0  0  0  0  0  0  0  0
  -11.6538  -24.3908   29.8702 C   0  0  0  0  0  0  0  0  0  0  0  0
  -11.8928  -23.2182   29.2507 N   0  0  0  0  0  0  0  0  0  0  0  0
  -11.7915  -23.2036   27.9017 C   0  0  0  0  0  0  0  0  0  0  0  0
  -11.4310  -24.2931   27.1290 C   0  0  0  0  0  0  0  0  0  0  0  0
   -8.4499  -30.4468   23.7465 N   0  0  0  0  0  0  0  0  0  0  0  0
   -7.0860  -30.0732   23.2995 C   0  0  0  0  0  0  0  0  0  0  0  0
   -8.5914  -31.8521   23.4554 C   0  0  0  0  0  0  0  0  0  0  0  0
   -9.4227  -32.6726   24.0774 N   0  0  0  0  0  0  0  0  0  0  0  0
   -9.4545  -33.9442   23.5435 C   0  0  0  0  0  0  0  0  0  0  0  0
  -10.2021  -35.0277   24.0549 C   0  0  0  0  0  0  0  0  0  0  0  0
  -10.1535  -36.2693   23.4179 C   0  0  0  0  0  0  0  0  0  0  0  0
   -9.3719  -36.4328   22.2808 C   0  0  0  0  0  0  0  0  0  0  0  0
   -8.6282  -35.3670   21.7702 C   0  0  0  0  0  0  0  0  0  0  0  0
   -7.8876  -35.5598   20.6699 F   0  0  0  0  0  0  0  0  0  0  0  0
   -8.6744  -34.1263   22.4129 C   0  0  0  0  0  0  0  0  0  0  0  0
   -7.9026  -32.6498   22.0370 S   0  0  0  0  0  0  0  0  0  0  0  0
   -8.6412  -30.9266   26.7746 H   0  0  0  0  0  0  0  0  0  0  0  0
   -9.8991  -31.5665   25.7727 H   0  0  0  0  0  0  0  0  0  0  0  0
  -10.3139  -30.3363   26.8242 H   0  0  0  0  0  0  0  0  0  0  0  0
   -8.1297  -29.1058   25.5740 H   0  0  0  0  0  0  0  0  0  0  0  0
  -10.5716  -28.1228   24.1633 H   0  0  0  0  0  0  0  0  0  0  0  0
  -11.1738  -28.9361   25.5652 H   0  0  0  0  0  0  0  0  0  0  0  0
  -11.6982  -26.7230   25.7381 H   0  0  0  0  0  0  0  0  0  0  0  0
  -10.9227  -26.4003   29.7518 H   0  0  0  0  0  0  0  0  0  0  0  0
  -11.7785  -24.3853   30.9487 H   0  0  0  0  0  0  0  0  0  0  0  0
  -11.9760  -22.2391   27.4378 H   0  0  0  0  0  0  0  0  0  0  0  0
  -11.3042  -24.1912   26.0599 H   0  0  0  0  0  0  0  0  0  0  0  0
   -6.6070  -29.3999   24.0047 H   0  0  0  0  0  0  0  0  0  0  0  0
   -7.1266  -29.6839   22.2782 H   0  0  0  0  0  0  0  0  0  0  0  0
   -6.3676  -30.9033   23.2499 H   0  0  0  0  0  0  0  0  0  0  0  0
  -10.8087  -34.8824   24.9433 H   0  0  0  0  0  0  0  0  0  0  0  0
  -10.7283  -37.1037   23.8113 H   0  0  0  0  0  0  0  0  0  0  0  0
   -9.3281  -37.3928   21.7744 H   0  0  0  0  0  0  0  0  0  0  0  0
  1  2  1  0
  2  3  1  0
  3  4  1  0
  4  5  1  0
  5  6  2  0
  5  7  1  0
  7  8  2  0
  8  9  1  0
  9 10  2  0
 10 11  1  0
 11 12  2  0
  2 13  1  0
 13 14  1  0
 13 15  1  0
 15 16  2  0
 16 17  1  0
 17 18  2  0
 18 19  1  0
 19 20  2  0
 20 21  1  0
 21 22  1  0
 21 23  2  0
 23 24  1  0
 12  7  1  0
 24 15  1  0
 23 17  1  0
  1 25  1  0
  1 26  1  0
  1 27  1  0
  2 28  1  0
  3 29  1  0
  3 30  1  0
  4 31  1  0
  8 32  1  0
  9 33  1  0
 11 34  1  0
 12 35  1  0
 14 36  1  0
 14 37  1  0
 14 38  1  0
 18 39  1  0
 19 40  1  0
 20 41  1  0
M  END
>  <Energy>  (1397) 
119.1426039335102

>  <compound_id>  (1397) 
6758

>  <target_id>  (1397) 
1

>  <reference_id>  (1397) 
82

>  <inspiration_ids>  (1397) 
[68, 82]

>  <energy_score>  (1397) 
10.903629800269073

>  <distance_score>  (1397) 
3.8928539927518986

>  <path>  (1397) 
/opt/xchem-fragalysis-2/maxwin/BulkDock/SCRATCH/511018/C6758-P82/C6758-P82.minimised.mol

>  <scratch_subdir>  (1397) 
/opt/xchem-fragalysis-2/maxwin/BulkDock/SCRATCH/511018/C6758-P82

>  <fragmenstein_runtime>  (1397) 
8.40510082244873

>  <fragmenstein_outcome>  (1397) 
too moved

>  <fragmenstein_mode>  (1397) 
expansion

>  <fragmenstein_error>  (1397) 


$$$$
C6759-P68
     RDKit          3D

 44 46  0  0  0  0  0  0  0  0999 V2000
   -9.3855  -35.8834   22.2580 C   0  0  0  0  0  0  0  0  0  0  0  0
  -10.5873  -35.9252   23.1582 C   0  0  0  0  0  0  0  0  0  0  0  0
  -11.4133  -37.0629   23.1474 C   0  0  0  0  0  0  0  0  0  0  0  0
  -12.5508  -37.1477   23.9424 C   0  0  0  0  0  0  0  0  0  0  0  0
  -12.9107  -36.0861   24.7711 C   0  0  0  0  0  0  0  0  0  0  0  0
  -12.1175  -34.9243   24.8013 C   0  0  0  0  0  0  0  0  0  0  0  0
  -12.3684  -33.8072   25.5872 N   0  0  0  0  0  0  0  0  0  0  0  0
  -11.4198  -32.8830   25.5178 C   0  0  0  0  0  0  0  0  0  0  0  0
  -11.5567  -31.5346   26.4052 N   0  0  0  0  0  0  0  0  0  0  0  0
  -13.0728  -31.3641   26.4900 C   0  0  0  0  0  0  0  0  0  0  0  0
  -10.2453  -30.3742   27.3488 C   0  0  0  0  0  0  0  0  0  0  0  0
   -9.6694  -31.9383   28.3186 C   0  0  0  0  0  0  0  0  0  0  0  0
  -10.8180  -28.5468   28.0475 C   0  0  0  0  0  0  0  0  0  0  0  0
  -11.9208  -28.3348   29.6146 N   0  0  0  0  0  0  0  0  0  0  0  0
  -11.6208  -28.6928   31.2479 C   0  0  0  0  0  0  0  0  0  0  0  0
  -10.5987  -29.0514   31.6758 O   0  0  0  0  0  0  0  0  0  0  0  0
  -12.6384  -28.7460   32.3218 C   0  0  0  0  0  0  0  0  0  0  0  0
  -12.4467  -28.0041   33.4496 C   0  0  0  0  0  0  0  0  0  0  0  0
  -13.0816  -28.3185   34.6235 C   0  0  0  0  0  0  0  0  0  0  0  0
  -13.8355  -29.4191   34.7960 N   0  0  0  0  0  0  0  0  0  0  0  0
  -13.8889  -30.2496   33.7472 C   0  0  0  0  0  0  0  0  0  0  0  0
  -13.3014  -29.9686   32.5240 C   0  0  0  0  0  0  0  0  0  0  0  0
  -10.2805  -33.3290   24.2283 S   0  0  0  0  0  0  0  0  0  0  0  0
  -10.9866  -34.8624   24.0003 C   0  0  0  0  0  0  0  0  0  0  0  0
   -8.9628  -36.8851   22.1256 H   0  0  0  0  0  0  0  0  0  0  0  0
   -8.5933  -35.2559   22.6744 H   0  0  0  0  0  0  0  0  0  0  0  0
   -9.6736  -35.4922   21.2780 H   0  0  0  0  0  0  0  0  0  0  0  0
  -11.1602  -37.9055   22.5046 H   0  0  0  0  0  0  0  0  0  0  0  0
  -13.1661  -38.0439   23.9148 H   0  0  0  0  0  0  0  0  0  0  0  0
  -13.7996  -36.1447   25.3910 H   0  0  0  0  0  0  0  0  0  0  0  0
  -13.5439  -31.7561   27.3894 H   0  0  0  0  0  0  0  0  0  0  0  0
  -13.3712  -30.3577   26.3082 H   0  0  0  0  0  0  0  0  0  0  0  0
  -13.5902  -31.9093   25.6918 H   0  0  0  0  0  0  0  0  0  0  0  0
   -9.4177  -29.7701   27.0084 H   0  0  0  0  0  0  0  0  0  0  0  0
   -9.9775  -32.3155   29.3067 H   0  0  0  0  0  0  0  0  0  0  0  0
   -8.8081  -31.4586   28.5571 H   0  0  0  0  0  0  0  0  0  0  0  0
   -9.4663  -32.9639   27.9291 H   0  0  0  0  0  0  0  0  0  0  0  0
   -9.8843  -28.0653   28.3360 H   0  0  0  0  0  0  0  0  0  0  0  0
  -11.2147  -27.9658   27.2120 H   0  0  0  0  0  0  0  0  0  0  0  0
  -12.8219  -27.9777   29.5277 H   0  0  0  0  0  0  0  0  0  0  0  0
  -11.7477  -27.2087   33.3376 H   0  0  0  0  0  0  0  0  0  0  0  0
  -13.0054  -27.6428   35.4607 H   0  0  0  0  0  0  0  0  0  0  0  0
  -14.3881  -31.1973   33.9248 H   0  0  0  0  0  0  0  0  0  0  0  0
  -13.2417  -30.7915   31.8283 H   0  0  0  0  0  0  0  0  0  0  0  0
  1  2  1  0
  2  3  2  0
  3  4  1  0
  4  5  2  0
  5  6  1  0
  6  7  1  0
  7  8  2  0
  8  9  1  0
  9 10  1  0
  9 11  1  0
 11 12  1  0
 11 13  1  0
 13 14  1  0
 14 15  1  0
 15 16  2  0
 15 17  1  0
 17 18  2  0
 18 19  1  0
 19 20  2  0
 20 21  1  0
 21 22  2  0
  8 23  1  0
 23 24  1  0
 24  2  1  0
 24  6  2  0
 22 17  1  0
  1 25  1  0
  1 26  1  0
  1 27  1  0
  3 28  1  0
  4 29  1  0
  5 30  1  0
 10 31  1  0
 10 32  1  0
 10 33  1  0
 11 34  1  0
 12 35  1  0
 12 36  1  0
 12 37  1  0
 13 38  1  0
 13 39  1  0
 14 40  1  0
 18 41  1  0
 19 42  1  0
 21 43  1  0
 22 44  1  0
M  END
>  <Energy>  (1398) 
401.53682685955295

>  <compound_id>  (1398) 
6759

>  <target_id>  (1398) 
1

>  <reference_id>  (1398) 
68

>  <inspiration_ids>  (1398) 
[68, 82]

>  <energy_score>  (1398) 
302.438544294291

>  <distance_score>  (1398) 
4.849592371916258

>  <path>  (1398) 
/opt/xchem-fragalysis-2/maxwin/BulkDock/SCRATCH/511018/C6759-P68/C6759-P68.minimised.mol

>  <scratch_subdir>  (1398) 
/opt/xchem-fragalysis-2/maxwin/BulkDock/SCRATCH/511018/C6759-P68

>  <fragmenstein_runtime>  (1398) 
20.610960245132446

>  <fragmenstein_outcome>  (1398) 
too moved

>  <fragmenstein_mode>  (1398) 
expansion

>  <fragmenstein_error>  (1398) 


$$$$
C6759-P82
     RDKit          3D

 44 46  0  0  0  0  0  0  0  0999 V2000
   -8.3424  -37.3681   20.5144 C   0  0  0  0  0  0  0  0  0  0  0  0
   -8.5363  -36.1821   21.4157 C   0  0  0  0  0  0  0  0  0  0  0  0
   -7.5838  -35.1465   21.3966 C   0  0  0  0  0  0  0  0  0  0  0  0
   -7.7191  -34.0106   22.1849 C   0  0  0  0  0  0  0  0  0  0  0  0
   -8.8176  -33.8673   23.0260 C   0  0  0  0  0  0  0  0  0  0  0  0
   -9.7944  -34.8742   23.0742 C   0  0  0  0  0  0  0  0  0  0  0  0
  -10.9259  -34.8433   23.8645 N   0  0  0  0  0  0  0  0  0  0  0  0
  -11.7093  -35.8672   23.6130 C   0  0  0  0  0  0  0  0  0  0  0  0
  -12.9490  -36.0204   24.1936 N   0  0  0  0  0  0  0  0  0  0  0  0
  -14.0323  -36.5135   23.3455 C   0  0  0  0  0  0  0  0  0  0  0  0
  -13.2885  -35.0437   25.2577 C   0  0  0  0  0  0  0  0  0  0  0  0
  -14.2514  -35.6532   26.2823 C   0  0  0  0  0  0  0  0  0  0  0  0
  -13.8255  -33.7032   24.7010 C   0  0  0  0  0  0  0  0  0  0  0  0
  -13.7643  -32.6235   25.6711 N   0  0  0  0  0  0  0  0  0  0  0  0
  -14.4276  -31.3628   25.7105 C   0  0  0  0  0  0  0  0  0  0  0  0
  -15.2653  -30.8991   24.9980 O   0  0  0  0  0  0  0  0  0  0  0  0
  -13.9664  -30.5371   26.8587 C   0  0  0  0  0  0  0  0  0  0  0  0
  -14.1456  -31.0120   28.1563 C   0  0  0  0  0  0  0  0  0  0  0  0
  -13.6574  -30.2469   29.1911 C   0  0  0  0  0  0  0  0  0  0  0  0
  -13.0260  -29.0675   29.0063 N   0  0  0  0  0  0  0  0  0  0  0  0
  -12.8684  -28.6288   27.7329 C   0  0  0  0  0  0  0  0  0  0  0  0
  -13.3391  -29.3133   26.6335 C   0  0  0  0  0  0  0  0  0  0  0  0
  -11.0319  -37.0017   22.4984 S   0  0  0  0  0  0  0  0  0  0  0  0
   -9.6522  -35.9993   22.2626 C   0  0  0  0  0  0  0  0  0  0  0  0
   -8.6714  -37.1211   19.5002 H   0  0  0  0  0  0  0  0  0  0  0  0
   -8.9046  -38.2393   20.8622 H   0  0  0  0  0  0  0  0  0  0  0  0
   -7.2866  -37.6577   20.4828 H   0  0  0  0  0  0  0  0  0  0  0  0
   -6.7078  -35.2253   20.7530 H   0  0  0  0  0  0  0  0  0  0  0  0
   -6.9596  -33.2286   22.1573 H   0  0  0  0  0  0  0  0  0  0  0  0
   -8.9124  -32.9764   23.6381 H   0  0  0  0  0  0  0  0  0  0  0  0
  -13.8241  -37.5249   22.9804 H   0  0  0  0  0  0  0  0  0  0  0  0
  -14.9806  -36.5777   23.8856 H   0  0  0  0  0  0  0  0  0  0  0  0
  -14.1872  -35.8507   22.4863 H   0  0  0  0  0  0  0  0  0  0  0  0
  -12.3728  -34.8376   25.8270 H   0  0  0  0  0  0  0  0  0  0  0  0
  -15.2617  -35.7747   25.8800 H   0  0  0  0  0  0  0  0  0  0  0  0
  -14.3303  -35.0108   27.1659 H   0  0  0  0  0  0  0  0  0  0  0  0
  -13.8983  -36.6359   26.6129 H   0  0  0  0  0  0  0  0  0  0  0  0
  -13.2360  -33.3737   23.8404 H   0  0  0  0  0  0  0  0  0  0  0  0
  -14.8616  -33.7935   24.3562 H   0  0  0  0  0  0  0  0  0  0  0  0
  -13.0495  -32.6424   26.3875 H   0  0  0  0  0  0  0  0  0  0  0  0
  -14.6541  -31.9492   28.3513 H   0  0  0  0  0  0  0  0  0  0  0  0
  -13.7592  -30.5680   30.2240 H   0  0  0  0  0  0  0  0  0  0  0  0
  -12.3468  -27.6801   27.6266 H   0  0  0  0  0  0  0  0  0  0  0  0
  -13.2026  -28.9190   25.6324 H   0  0  0  0  0  0  0  0  0  0  0  0
  1  2  1  0
  2  3  2  0
  3  4  1  0
  4  5  2  0
  5  6  1  0
  6  7  1  0
  7  8  2  0
  8  9  1  0
  9 10  1  0
  9 11  1  0
 11 12  1  0
 11 13  1  0
 13 14  1  0
 14 15  1  0
 15 16  2  0
 15 17  1  0
 17 18  2  0
 18 19  1  0
 19 20  2  0
 20 21  1  0
 21 22  2  0
  8 23  1  0
 23 24  1  0
 24  2  1  0
 24  6  2  0
 22 17  1  0
  1 25  1  0
  1 26  1  0
  1 27  1  0
  3 28  1  0
  4 29  1  0
  5 30  1  0
 10 31  1  0
 10 32  1  0
 10 33  1  0
 11 34  1  0
 12 35  1  0
 12 36  1  0
 12 37  1  0
 13 38  1  0
 13 39  1  0
 14 40  1  0
 18 41  1  0
 19 42  1  0
 21 43  1  0
 22 44  1  0
M  END
>  <Energy>  (1399) 
21.010318838071942

>  <compound_id>  (1399) 
6759

>  <target_id>  (1399) 
1

>  <reference_id>  (1399) 
82

>  <inspiration_ids>  (1399) 
[68, 82]

>  <energy_score>  (1399) 
-78.0879637271969

>  <distance_score>  (1399) 
5.843304323388722

>  <path>  (1399) 
/opt/xchem-fragalysis-2/maxwin/BulkDock/SCRATCH/511018/C6759-P82/C6759-P82.minimised.mol

>  <scratch_subdir>  (1399) 
/opt/xchem-fragalysis-2/maxwin/BulkDock/SCRATCH/511018/C6759-P82

>  <fragmenstein_runtime>  (1399) 
13.005051851272583

>  <fragmenstein_outcome>  (1399) 
too moved

>  <fragmenstein_mode>  (1399) 
expansion

>  <fragmenstein_error>  (1399) 


$$$$
C6760-P68
     RDKit          3D

 48 51  0  0  0  0  0  0  0  0999 V2000
  -11.1434  -33.2485   25.1569 C   0  0  0  0  0  0  0  0  0  0  0  0
  -12.4200  -32.3794   25.6147 C   0  0  0  0  0  0  0  0  0  0  0  0
  -12.5582  -30.7035   26.5201 C   0  0  0  0  0  0  0  0  0  0  0  0
  -11.4756  -29.0881   26.9864 N   0  0  0  0  0  0  0  0  0  0  0  0
  -11.6319  -27.5263   26.4400 C   0  0  0  0  0  0  0  0  0  0  0  0
  -12.4694  -27.0304   25.7298 O   0  0  0  0  0  0  0  0  0  0  0  0
  -10.5912  -26.5642   26.7214 C   0  0  0  0  0  0  0  0  0  0  0  0
  -10.0203  -26.9449   27.9484 C   0  0  0  0  0  0  0  0  0  0  0  0
  -10.1146  -25.2224   27.4068 C   0  0  0  0  0  0  0  0  0  0  0  0
  -10.1037  -24.0266   28.8656 C   0  0  0  0  0  0  0  0  0  0  0  0
  -10.4108  -23.7246   30.6397 C   0  0  0  0  0  0  0  0  0  0  0  0
   -9.8845  -24.2538   31.8747 C   0  0  0  0  0  0  0  0  0  0  0  0
   -8.8658  -25.0479   31.8543 N   0  0  0  0  0  0  0  0  0  0  0  0
   -8.3533  -25.2029   30.6181 C   0  0  0  0  0  0  0  0  0  0  0  0
   -8.9553  -24.6049   29.1380 C   0  0  0  0  0  0  0  0  0  0  0  0
  -13.4830  -32.7908   24.5260 N   0  0  0  0  0  0  0  0  0  0  0  0
  -13.0271  -32.5578   23.1042 C   0  0  0  0  0  0  0  0  0  0  0  0
  -13.8451  -34.1552   24.6323 C   0  0  0  0  0  0  0  0  0  0  0  0
  -13.3552  -34.9929   25.5311 N   0  0  0  0  0  0  0  0  0  0  0  0
  -13.1468  -36.2297   24.9425 C   0  0  0  0  0  0  0  0  0  0  0  0
  -12.3225  -37.2600   25.4373 C   0  0  0  0  0  0  0  0  0  0  0  0
  -12.1234  -38.4122   24.6735 C   0  0  0  0  0  0  0  0  0  0  0  0
  -12.7599  -38.5614   23.4455 C   0  0  0  0  0  0  0  0  0  0  0  0
  -13.6168  -37.5730   22.9537 C   0  0  0  0  0  0  0  0  0  0  0  0
  -13.7847  -36.4100   23.7181 C   0  0  0  0  0  0  0  0  0  0  0  0
  -14.7379  -35.0115   23.3967 S   0  0  0  0  0  0  0  0  0  0  0  0
  -11.4083  -34.0884   24.5079 H   0  0  0  0  0  0  0  0  0  0  0  0
  -10.6384  -33.7783   25.9609 H   0  0  0  0  0  0  0  0  0  0  0  0
  -10.4253  -32.7496   24.5023 H   0  0  0  0  0  0  0  0  0  0  0  0
  -12.8615  -32.9341   26.4430 H   0  0  0  0  0  0  0  0  0  0  0  0
  -13.3809  -30.2651   25.9958 H   0  0  0  0  0  0  0  0  0  0  0  0
  -13.2315  -31.0355   27.3183 H   0  0  0  0  0  0  0  0  0  0  0  0
  -10.6160  -29.1860   27.4957 H   0  0  0  0  0  0  0  0  0  0  0  0
  -10.0464  -26.6465   25.7967 H   0  0  0  0  0  0  0  0  0  0  0  0
  -10.5117  -27.4421   28.7568 H   0  0  0  0  0  0  0  0  0  0  0  0
   -9.4839  -27.8730   27.7240 H   0  0  0  0  0  0  0  0  0  0  0  0
   -9.4776  -24.7246   26.6730 H   0  0  0  0  0  0  0  0  0  0  0  0
  -11.0834  -22.8146   30.7648 H   0  0  0  0  0  0  0  0  0  0  0  0
  -10.1711  -23.8878   32.7841 H   0  0  0  0  0  0  0  0  0  0  0  0
   -7.6589  -26.0248   30.5419 H   0  0  0  0  0  0  0  0  0  0  0  0
   -8.3195  -23.8276   28.5985 H   0  0  0  0  0  0  0  0  0  0  0  0
  -12.5314  -33.4355   22.6675 H   0  0  0  0  0  0  0  0  0  0  0  0
  -12.2821  -31.7690   23.0054 H   0  0  0  0  0  0  0  0  0  0  0  0
  -13.8882  -32.3063   22.4779 H   0  0  0  0  0  0  0  0  0  0  0  0
  -11.8125  -37.1421   26.3852 H   0  0  0  0  0  0  0  0  0  0  0  0
  -11.4665  -39.1970   25.0430 H   0  0  0  0  0  0  0  0  0  0  0  0
  -12.5997  -39.4674   22.8639 H   0  0  0  0  0  0  0  0  0  0  0  0
  -14.1228  -37.6970   22.0012 H   0  0  0  0  0  0  0  0  0  0  0  0
  1  2  1  0
  2  3  1  0
  3  4  1  0
  4  5  1  0
  5  6  2  0
  5  7  1  0
  7  8  1  0
  8  9  1  0
  9 10  1  0
 10 11  2  0
 11 12  1  0
 12 13  2  0
 13 14  1  0
 14 15  2  0
  2 16  1  0
 16 17  1  0
 16 18  1  0
 18 19  2  0
 19 20  1  0
 20 21  2  0
 21 22  1  0
 22 23  2  0
 23 24  1  0
 24 25  2  0
 25 26  1  0
  9  7  1  0
 15 10  1  0
 26 18  1  0
 25 20  1  0
  1 27  1  0
  1 28  1  0
  1 29  1  0
  2 30  1  0
  3 31  1  0
  3 32  1  0
  4 33  1  0
  7 34  1  0
  8 35  1  0
  8 36  1  0
  9 37  1  0
 11 38  1  0
 12 39  1  0
 14 40  1  0
 15 41  1  0
 17 42  1  0
 17 43  1  0
 17 44  1  0
 21 45  1  0
 22 46  1  0
 23 47  1  0
 24 48  1  0
M  END
>  <Energy>  (1400) 
576.07309702302996

>  <compound_id>  (1400) 
6760

>  <target_id>  (1400) 
1

>  <reference_id>  (1400) 
68

>  <inspiration_ids>  (1400) 
[68, 82]

>  <energy_score>  (1400) 
497.42123881268117

>  <distance_score>  (1400) 
4.8098018745541715

>  <path>  (1400) 
/opt/xchem-fragalysis-2/maxwin/BulkDock/SCRATCH/511018/C6760-P68/C6760-P68.minimised.mol

>  <scratch_subdir>  (1400) 
/opt/xchem-fragalysis-2/maxwin/BulkDock/SCRATCH/511018/C6760-P68

>  <fragmenstein_runtime>  (1400) 
15.840495109558105

>  <fragmenstein_outcome>  (1400) 
too moved

>  <fragmenstein_mode>  (1400) 
expansion

>  <fragmenstein_error>  (1400) 


$$$$
C6760-P82
     RDKit          3D

 48 51  0  0  0  0  0  0  0  0999 V2000
   -6.8803  -30.0976   23.2888 C   0  0  0  0  0  0  0  0  0  0  0  0
   -8.3340  -30.5728   23.5977 C   0  0  0  0  0  0  0  0  0  0  0  0
   -8.8070  -30.0044   25.2359 C   0  0  0  0  0  0  0  0  0  0  0  0
  -10.1270  -29.4883   25.7839 N   0  0  0  0  0  0  0  0  0  0  0  0
  -10.8078  -28.2265   25.5905 C   0  0  0  0  0  0  0  0  0  0  0  0
  -10.4693  -27.2396   25.0174 O   0  0  0  0  0  0  0  0  0  0  0  0
  -12.2091  -28.1903   26.1082 C   0  0  0  0  0  0  0  0  0  0  0  0
  -12.7313  -28.7357   27.3920 C   0  0  0  0  0  0  0  0  0  0  0  0
  -12.7444  -27.2422   27.1516 C   0  0  0  0  0  0  0  0  0  0  0  0
  -11.9442  -26.2717   27.9905 C   0  0  0  0  0  0  0  0  0  0  0  0
  -11.8521  -24.9358   27.5880 C   0  0  0  0  0  0  0  0  0  0  0  0
  -11.3219  -23.9952   28.4545 C   0  0  0  0  0  0  0  0  0  0  0  0
  -10.8430  -24.2859   29.6792 N   0  0  0  0  0  0  0  0  0  0  0  0
  -10.8826  -25.5727   30.0516 C   0  0  0  0  0  0  0  0  0  0  0  0
  -11.4194  -26.5706   29.2549 C   0  0  0  0  0  0  0  0  0  0  0  0
   -8.3287  -32.1114   23.2440 N   0  0  0  0  0  0  0  0  0  0  0  0
   -7.3597  -32.5359   22.1934 C   0  0  0  0  0  0  0  0  0  0  0  0
   -9.3900  -32.9711   23.3026 C   0  0  0  0  0  0  0  0  0  0  0  0
   -9.9048  -33.4481   24.4110 N   0  0  0  0  0  0  0  0  0  0  0  0
  -10.7064  -34.5466   24.1500 C   0  0  0  0  0  0  0  0  0  0  0  0
  -11.2690  -35.4114   25.1094 C   0  0  0  0  0  0  0  0  0  0  0  0
  -12.0709  -36.4804   24.7019 C   0  0  0  0  0  0  0  0  0  0  0  0
  -12.3185  -36.6981   23.3515 C   0  0  0  0  0  0  0  0  0  0  0  0
  -11.7669  -35.8616   22.3788 C   0  0  0  0  0  0  0  0  0  0  0  0
  -10.9578  -34.7973   22.8046 C   0  0  0  0  0  0  0  0  0  0  0  0
  -10.1339  -33.6328   21.8634 S   0  0  0  0  0  0  0  0  0  0  0  0
   -6.8003  -29.7609   22.2506 H   0  0  0  0  0  0  0  0  0  0  0  0
   -6.5541  -29.3428   23.9928 H   0  0  0  0  0  0  0  0  0  0  0  0
   -6.1009  -30.8452   23.4047 H   0  0  0  0  0  0  0  0  0  0  0  0
   -8.9449  -30.0454   22.8591 H   0  0  0  0  0  0  0  0  0  0  0  0
   -8.0751  -29.2605   25.5421 H   0  0  0  0  0  0  0  0  0  0  0  0
   -8.7957  -30.9083   25.8466 H   0  0  0  0  0  0  0  0  0  0  0  0
  -10.6802  -30.0730   26.3955 H   0  0  0  0  0  0  0  0  0  0  0  0
  -12.8800  -28.3066   25.2558 H   0  0  0  0  0  0  0  0  0  0  0  0
  -12.0361  -29.1729   28.0772 H   0  0  0  0  0  0  0  0  0  0  0  0
  -13.6829  -29.2564   27.3642 H   0  0  0  0  0  0  0  0  0  0  0  0
  -13.7182  -26.8319   26.8780 H   0  0  0  0  0  0  0  0  0  0  0  0
  -12.2394  -24.6164   26.6256 H   0  0  0  0  0  0  0  0  0  0  0  0
  -11.2796  -22.9461   28.1775 H   0  0  0  0  0  0  0  0  0  0  0  0
  -10.4817  -25.7931   31.0371 H   0  0  0  0  0  0  0  0  0  0  0  0
  -11.4645  -27.5689   29.6607 H   0  0  0  0  0  0  0  0  0  0  0  0
   -7.5717  -32.0452   21.2428 H   0  0  0  0  0  0  0  0  0  0  0  0
   -7.3866  -33.6221   22.0291 H   0  0  0  0  0  0  0  0  0  0  0  0
   -6.3151  -32.3732   22.4471 H   0  0  0  0  0  0  0  0  0  0  0  0
  -11.0655  -35.2535   26.1617 H   0  0  0  0  0  0  0  0  0  0  0  0
  -12.4991  -37.1450   25.4489 H   0  0  0  0  0  0  0  0  0  0  0  0
  -12.9435  -37.5351   23.0466 H   0  0  0  0  0  0  0  0  0  0  0  0
  -11.9506  -36.0388   21.3237 H   0  0  0  0  0  0  0  0  0  0  0  0
  1  2  1  0
  2  3  1  0
  3  4  1  0
  4  5  1  0
  5  6  2  0
  5  7  1  0
  7  8  1  0
  8  9  1  0
  9 10  1  0
 10 11  2  0
 11 12  1  0
 12 13  2  0
 13 14  1  0
 14 15  2  0
  2 16  1  0
 16 17  1  0
 16 18  1  0
 18 19  2  0
 19 20  1  0
 20 21  2  0
 21 22  1  0
 22 23  2  0
 23 24  1  0
 24 25  2  0
 25 26  1  0
  9  7  1  0
 15 10  1  0
 26 18  1  0
 25 20  1  0
  1 27  1  0
  1 28  1  0
  1 29  1  0
  2 30  1  0
  3 31  1  0
  3 32  1  0
  4 33  1  0
  7 34  1  0
  8 35  1  0
  8 36  1  0
  9 37  1  0
 11 38  1  0
 12 39  1  0
 14 40  1  0
 15 41  1  0
 17 42  1  0
 17 43  1  0
 17 44  1  0
 21 45  1  0
 22 46  1  0
 23 47  1  0
 24 48  1  0
M  END
>  <Energy>  (1401) 
84.952654548812248

>  <compound_id>  (1401) 
6760

>  <target_id>  (1401) 
1

>  <reference_id>  (1401) 
82

>  <inspiration_ids>  (1401) 
[68, 82]

>  <energy_score>  (1401) 
6.300796338467762

>  <distance_score>  (1401) 
3.719735143747846

>  <path>  (1401) 
/opt/xchem-fragalysis-2/maxwin/BulkDock/SCRATCH/511018/C6760-P82/C6760-P82.minimised.mol

>  <scratch_subdir>  (1401) 
/opt/xchem-fragalysis-2/maxwin/BulkDock/SCRATCH/511018/C6760-P82

>  <fragmenstein_runtime>  (1401) 
12.425737857818604

>  <fragmenstein_outcome>  (1401) 
too moved

>  <fragmenstein_mode>  (1401) 
expansion

>  <fragmenstein_error>  (1401) 


$$$$
C6761-P68
     RDKit          3D

 40 42  0  0  0  0  0  0  0  0999 V2000
  -10.8981  -27.5675   25.7237 C   0  0  0  0  0  0  0  0  0  0  0  0
  -12.3888  -28.0380   25.7559 C   0  0  0  0  0  0  0  0  0  0  0  0
  -13.4788  -26.8602   25.6124 C   0  0  0  0  0  0  0  0  0  0  0  0
  -13.0169  -25.3423   25.9955 C   0  0  0  0  0  0  0  0  0  0  0  0
  -11.8134  -24.3730   26.2855 C   0  0  0  0  0  0  0  0  0  0  0  0
  -12.1343  -23.0300   26.3876 C   0  0  0  0  0  0  0  0  0  0  0  0
  -11.5949  -22.3138   27.4659 C   0  0  0  0  0  0  0  0  0  0  0  0
  -10.5807  -22.7422   28.2183 N   0  0  0  0  0  0  0  0  0  0  0  0
   -9.9980  -23.8427   27.7271 C   0  0  0  0  0  0  0  0  0  0  0  0
  -10.5254  -24.6440   26.7241 C   0  0  0  0  0  0  0  0  0  0  0  0
  -12.8477  -29.9276   26.0255 N   0  0  0  0  0  0  0  0  0  0  0  0
  -14.0483  -30.8503   26.1936 C   0  0  0  0  0  0  0  0  0  0  0  0
  -13.6300  -32.2801   25.6511 C   0  0  0  0  0  0  0  0  0  0  0  0
  -12.4152  -32.7878   25.7588 N   0  0  0  0  0  0  0  0  0  0  0  0
  -12.2241  -33.8419   24.8796 C   0  0  0  0  0  0  0  0  0  0  0  0
  -11.0122  -34.5249   24.6552 C   0  0  0  0  0  0  0  0  0  0  0  0
  -10.9779  -35.5471   23.7138 C   0  0  0  0  0  0  0  0  0  0  0  0
   -9.8260  -36.1918   23.4874 F   0  0  0  0  0  0  0  0  0  0  0  0
  -12.1100  -35.9108   23.0004 C   0  0  0  0  0  0  0  0  0  0  0  0
  -13.3251  -35.2524   23.2148 C   0  0  0  0  0  0  0  0  0  0  0  0
  -13.3585  -34.2132   24.1612 C   0  0  0  0  0  0  0  0  0  0  0  0
  -14.6777  -33.2017   24.6385 S   0  0  0  0  0  0  0  0  0  0  0  0
  -10.1412  -27.9538   25.0802 H   0  0  0  0  0  0  0  0  0  0  0  0
  -10.9295  -26.5541   25.3846 H   0  0  0  0  0  0  0  0  0  0  0  0
  -10.4385  -27.6509   26.7220 H   0  0  0  0  0  0  0  0  0  0  0  0
  -12.1809  -27.5610   26.7372 H   0  0  0  0  0  0  0  0  0  0  0  0
  -14.3135  -27.0826   26.2814 H   0  0  0  0  0  0  0  0  0  0  0  0
  -14.0045  -26.8621   24.6496 H   0  0  0  0  0  0  0  0  0  0  0  0
  -13.7597  -24.7299   25.4672 H   0  0  0  0  0  0  0  0  0  0  0  0
  -13.3138  -25.4060   27.0246 H   0  0  0  0  0  0  0  0  0  0  0  0
  -12.9823  -22.6181   25.8540 H   0  0  0  0  0  0  0  0  0  0  0  0
  -12.0405  -21.3857   27.7814 H   0  0  0  0  0  0  0  0  0  0  0  0
   -9.0852  -24.1016   28.2142 H   0  0  0  0  0  0  0  0  0  0  0  0
   -9.9944  -25.5561   26.5938 H   0  0  0  0  0  0  0  0  0  0  0  0
  -12.5043  -29.8940   26.9581 H   0  0  0  0  0  0  0  0  0  0  0  0
  -14.9518  -30.4944   25.6867 H   0  0  0  0  0  0  0  0  0  0  0  0
  -14.3148  -31.0282   27.2366 H   0  0  0  0  0  0  0  0  0  0  0  0
  -10.1142  -34.2488   25.1962 H   0  0  0  0  0  0  0  0  0  0  0  0
  -12.0440  -36.7138   22.2712 H   0  0  0  0  0  0  0  0  0  0  0  0
  -14.2145  -35.5312   22.6574 H   0  0  0  0  0  0  0  0  0  0  0  0
  1  2  1  0
  2  3  1  0
  3  4  1  0
  4  5  1  0
  5  6  2  0
  6  7  1  0
  7  8  2  0
  8  9  1  0
  9 10  2  0
  2 11  1  0
 11 12  1  0
 12 13  1  0
 13 14  2  0
 14 15  1  0
 15 16  2  0
 16 17  1  0
 17 18  1  0
 17 19  2  0
 19 20  1  0
 20 21  2  0
 21 22  1  0
 10  5  1  0
 22 13  1  0
 21 15  1  0
  1 23  1  0
  1 24  1  0
  1 25  1  0
  2 26  1  0
  3 27  1  0
  3 28  1  0
  4 29  1  0
  4 30  1  0
  6 31  1  0
  7 32  1  0
  9 33  1  0
 10 34  1  0
 11 35  1  0
 12 36  1  0
 12 37  1  0
 16 38  1  0
 19 39  1  0
 20 40  1  0
M  END
>  <Energy>  (1402) 
282.55496657854877

>  <compound_id>  (1402) 
6761

>  <target_id>  (1402) 
1

>  <reference_id>  (1402) 
68

>  <inspiration_ids>  (1402) 
[68, 82]

>  <energy_score>  (1402) 
169.3379383818626

>  <distance_score>  (1402) 
5.282836584997437

>  <path>  (1402) 
/opt/xchem-fragalysis-2/maxwin/BulkDock/SCRATCH/511018/C6761-P68/C6761-P68.minimised.mol

>  <scratch_subdir>  (1402) 
/opt/xchem-fragalysis-2/maxwin/BulkDock/SCRATCH/511018/C6761-P68

>  <fragmenstein_runtime>  (1402) 
9.01375412940979

>  <fragmenstein_outcome>  (1402) 
too moved

>  <fragmenstein_mode>  (1402) 
expansion

>  <fragmenstein_error>  (1402) 


$$$$
C6761-P82
     RDKit          3D

 40 42  0  0  0  0  0  0  0  0999 V2000
  -14.2056  -30.0562   26.3211 C   0  0  0  0  0  0  0  0  0  0  0  0
  -12.7144  -29.7433   26.5761 C   0  0  0  0  0  0  0  0  0  0  0  0
  -12.6843  -28.7228   27.8796 C   0  0  0  0  0  0  0  0  0  0  0  0
  -12.0956  -27.1887   27.8331 C   0  0  0  0  0  0  0  0  0  0  0  0
  -11.7254  -26.3165   29.0575 C   0  0  0  0  0  0  0  0  0  0  0  0
  -10.9556  -26.7095   30.1565 C   0  0  0  0  0  0  0  0  0  0  0  0
  -10.6362  -25.8249   31.1932 C   0  0  0  0  0  0  0  0  0  0  0  0
  -11.0348  -24.5521   31.2222 N   0  0  0  0  0  0  0  0  0  0  0  0
  -11.7609  -24.1589   30.1586 C   0  0  0  0  0  0  0  0  0  0  0  0
  -12.0824  -24.9675   29.0667 C   0  0  0  0  0  0  0  0  0  0  0  0
  -11.9184  -31.0629   26.5713 N   0  0  0  0  0  0  0  0  0  0  0  0
  -12.3254  -32.2835   25.6926 C   0  0  0  0  0  0  0  0  0  0  0  0
  -11.2624  -33.4321   25.1237 C   0  0  0  0  0  0  0  0  0  0  0  0
  -11.1809  -34.6681   25.5999 N   0  0  0  0  0  0  0  0  0  0  0  0
  -10.3344  -35.4722   24.8459 C   0  0  0  0  0  0  0  0  0  0  0  0
  -10.0394  -36.8138   25.1082 C   0  0  0  0  0  0  0  0  0  0  0  0
   -9.2195  -37.4851   24.2135 C   0  0  0  0  0  0  0  0  0  0  0  0
   -8.9310  -38.7741   24.4405 F   0  0  0  0  0  0  0  0  0  0  0  0
   -8.6854  -36.8661   23.0900 C   0  0  0  0  0  0  0  0  0  0  0  0
   -8.9431  -35.5278   22.8272 C   0  0  0  0  0  0  0  0  0  0  0  0
   -9.7735  -34.8617   23.7316 C   0  0  0  0  0  0  0  0  0  0  0  0
  -10.2743  -33.2442   23.7046 S   0  0  0  0  0  0  0  0  0  0  0  0
  -14.3783  -30.5678   25.3722 H   0  0  0  0  0  0  0  0  0  0  0  0
  -14.6182  -30.6761   27.1248 H   0  0  0  0  0  0  0  0  0  0  0  0
  -14.7921  -29.1312   26.2706 H   0  0  0  0  0  0  0  0  0  0  0  0
  -12.3691  -29.1216   25.7450 H   0  0  0  0  0  0  0  0  0  0  0  0
  -12.3490  -29.2618   28.7502 H   0  0  0  0  0  0  0  0  0  0  0  0
  -13.7438  -28.5744   28.1040 H   0  0  0  0  0  0  0  0  0  0  0  0
  -12.8538  -26.6347   27.2604 H   0  0  0  0  0  0  0  0  0  0  0  0
  -11.2183  -27.1938   27.1780 H   0  0  0  0  0  0  0  0  0  0  0  0
  -10.5847  -27.7104   30.2701 H   0  0  0  0  0  0  0  0  0  0  0  0
  -10.0407  -26.1488   32.0396 H   0  0  0  0  0  0  0  0  0  0  0  0
  -12.0979  -23.1263   30.1879 H   0  0  0  0  0  0  0  0  0  0  0  0
  -12.6363  -24.5288   28.2451 H   0  0  0  0  0  0  0  0  0  0  0  0
  -10.9053  -30.9418   26.6467 H   0  0  0  0  0  0  0  0  0  0  0  0
  -12.8912  -31.9718   24.8188 H   0  0  0  0  0  0  0  0  0  0  0  0
  -13.0641  -32.8436   26.2803 H   0  0  0  0  0  0  0  0  0  0  0  0
  -10.4559  -37.3193   25.9709 H   0  0  0  0  0  0  0  0  0  0  0  0
   -8.0436  -37.4385   22.4249 H   0  0  0  0  0  0  0  0  0  0  0  0
   -8.5082  -35.0230   21.9702 H   0  0  0  0  0  0  0  0  0  0  0  0
  1  2  1  0
  2  3  1  0
  3  4  1  0
  4  5  1  0
  5  6  2  0
  6  7  1  0
  7  8  2  0
  8  9  1  0
  9 10  2  0
  2 11  1  0
 11 12  1  0
 12 13  1  0
 13 14  2  0
 14 15  1  0
 15 16  2  0
 16 17  1  0
 17 18  1  0
 17 19  2  0
 19 20  1  0
 20 21  2  0
 21 22  1  0
 10  5  1  0
 22 13  1  0
 21 15  1  0
  1 23  1  0
  1 24  1  0
  1 25  1  0
  2 26  1  0
  3 27  1  0
  3 28  1  0
  4 29  1  0
  4 30  1  0
  6 31  1  0
  7 32  1  0
  9 33  1  0
 10 34  1  0
 11 35  1  0
 12 36  1  0
 12 37  1  0
 16 38  1  0
 19 39  1  0
 20 40  1  0
M  END
>  <Energy>  (1403) 
106.92888426881343

>  <compound_id>  (1403) 
6761

>  <target_id>  (1403) 
1

>  <reference_id>  (1403) 
82

>  <inspiration_ids>  (1403) 
[68, 82]

>  <energy_score>  (1403) 
-12.294184214519419

>  <distance_score>  (1403) 
3.4617573794425374

>  <path>  (1403) 
/opt/xchem-fragalysis-2/maxwin/BulkDock/SCRATCH/511018/C6761-P82/C6761-P82.minimised.mol

>  <scratch_subdir>  (1403) 
/opt/xchem-fragalysis-2/maxwin/BulkDock/SCRATCH/511018/C6761-P82

>  <fragmenstein_runtime>  (1403) 
3.155057430267334

>  <fragmenstein_outcome>  (1403) 
too moved

>  <fragmenstein_mode>  (1403) 
expansion

>  <fragmenstein_error>  (1403) 


$$$$
C6762-P68
     RDKit          3D

 29 31  0  0  0  0  0  0  0  0999 V2000
  -12.2122  -39.2090   25.9558 O   0  0  0  0  0  0  0  0  0  0  0  0
  -11.2331  -39.1977   25.1967 N   0  0  0  0  0  0  0  0  0  0  0  0
  -10.9192  -40.0842   24.3929 O   0  0  0  0  0  0  0  0  0  0  0  0
  -10.4246  -37.9974   25.2249 C   0  0  0  0  0  0  0  0  0  0  0  0
  -10.2438  -37.2942   24.0425 C   0  0  0  0  0  0  0  0  0  0  0  0
   -9.6436  -36.0480   24.1095 C   0  0  0  0  0  0  0  0  0  0  0  0
   -9.3036  -35.5509   25.3826 C   0  0  0  0  0  0  0  0  0  0  0  0
   -8.6230  -34.0807   25.7482 S   0  0  0  0  0  0  0  0  0  0  0  0
   -9.0583  -34.1595   27.6994 C   0  0  0  0  0  0  0  0  0  0  0  0
   -9.3719  -32.8331   28.8821 C   0  0  0  0  0  0  0  0  0  0  0  0
   -9.5024  -32.4871   30.3992 C   0  0  0  0  0  0  0  0  0  0  0  0
   -9.6051  -32.9278   31.9162 C   0  0  0  0  0  0  0  0  0  0  0  0
  -10.6145  -32.3182   32.6926 C   0  0  0  0  0  0  0  0  0  0  0  0
  -10.5417  -32.3678   34.0709 C   0  0  0  0  0  0  0  0  0  0  0  0
   -9.5549  -32.9982   34.7313 N   0  0  0  0  0  0  0  0  0  0  0  0
   -8.6362  -33.6347   33.9709 C   0  0  0  0  0  0  0  0  0  0  0  0
   -8.6220  -33.6425   32.5829 C   0  0  0  0  0  0  0  0  0  0  0  0
   -9.0221  -35.5028   27.7522 N   0  0  0  0  0  0  0  0  0  0  0  0
   -9.4263  -36.2330   26.5654 C   0  0  0  0  0  0  0  0  0  0  0  0
   -9.9834  -37.5259   26.4733 C   0  0  0  0  0  0  0  0  0  0  0  0
  -10.5855  -37.6881   23.0883 H   0  0  0  0  0  0  0  0  0  0  0  0
   -9.4848  -35.4521   23.2150 H   0  0  0  0  0  0  0  0  0  0  0  0
   -9.4616  -31.9462   28.2896 H   0  0  0  0  0  0  0  0  0  0  0  0
   -9.4483  -31.4997   30.8317 H   0  0  0  0  0  0  0  0  0  0  0  0
  -11.4385  -31.7830   32.2399 H   0  0  0  0  0  0  0  0  0  0  0  0
  -11.2897  -31.8836   34.6916 H   0  0  0  0  0  0  0  0  0  0  0  0
   -7.8669  -34.1579   34.5320 H   0  0  0  0  0  0  0  0  0  0  0  0
   -7.8381  -34.1574   32.0461 H   0  0  0  0  0  0  0  0  0  0  0  0
  -10.1485  -38.1363   27.3504 H   0  0  0  0  0  0  0  0  0  0  0  0
  1  2  2  0
  2  3  1  0
  2  4  1  0
  4  5  2  0
  5  6  1  0
  6  7  2  0
  7  8  1  0
  8  9  1  0
  9 10  1  0
 10 11  2  3
 11 12  1  0
 12 13  2  0
 13 14  1  0
 14 15  2  0
 15 16  1  0
 16 17  2  0
  9 18  2  0
 18 19  1  0
 19 20  2  0
 20  4  1  0
 19  7  1  0
 17 12  1  0
  5 21  1  0
  6 22  1  0
 10 23  1  0
 11 24  1  0
 13 25  1  0
 14 26  1  0
 16 27  1  0
 17 28  1  0
 20 29  1  0
M  CHG  2   2   1   3  -1
M  END
>  <Energy>  (1404) 
220.23754395447202

>  <compound_id>  (1404) 
6762

>  <target_id>  (1404) 
1

>  <reference_id>  (1404) 
68

>  <inspiration_ids>  (1404) 
[68, 82]

>  <energy_score>  (1404) 
108.12690611754738

>  <distance_score>  (1404) 
6.520983543228702

>  <path>  (1404) 
/opt/xchem-fragalysis-2/maxwin/BulkDock/SCRATCH/511018/C6762-P68/C6762-P68.minimised.mol

>  <scratch_subdir>  (1404) 
/opt/xchem-fragalysis-2/maxwin/BulkDock/SCRATCH/511018/C6762-P68

>  <fragmenstein_runtime>  (1404) 
6.934924125671387

>  <fragmenstein_outcome>  (1404) 
too moved

>  <fragmenstein_mode>  (1404) 
expansion

>  <fragmenstein_error>  (1404) 


$$$$
C6762-P82
     RDKit          3D

 29 31  0  0  0  0  0  0  0  0999 V2000
  -13.9354  -36.1701   24.3668 O   0  0  0  0  0  0  0  0  0  0  0  0
  -12.8536  -35.9082   23.8335 N   0  0  0  0  0  0  0  0  0  0  0  0
  -12.3084  -36.5793   22.9481 O   0  0  0  0  0  0  0  0  0  0  0  0
  -12.1874  -34.7089   24.3093 C   0  0  0  0  0  0  0  0  0  0  0  0
  -10.8668  -34.4645   23.9587 C   0  0  0  0  0  0  0  0  0  0  0  0
  -10.2441  -33.3503   24.4979 C   0  0  0  0  0  0  0  0  0  0  0  0
  -10.9854  -32.5171   25.3929 C   0  0  0  0  0  0  0  0  0  0  0  0
  -10.4762  -31.0756   26.3555 S   0  0  0  0  0  0  0  0  0  0  0  0
  -12.1077  -30.6805   26.8508 C   0  0  0  0  0  0  0  0  0  0  0  0
  -12.4262  -29.4682   27.7667 C   0  0  0  0  0  0  0  0  0  0  0  0
  -12.0546  -28.1308   27.6559 C   0  0  0  0  0  0  0  0  0  0  0  0
  -11.8610  -26.9383   28.6338 C   0  0  0  0  0  0  0  0  0  0  0  0
  -12.0919  -25.6339   28.2011 C   0  0  0  0  0  0  0  0  0  0  0  0
  -11.7480  -24.5528   29.0261 C   0  0  0  0  0  0  0  0  0  0  0  0
  -11.1511  -24.6451   30.2345 N   0  0  0  0  0  0  0  0  0  0  0  0
  -10.9143  -25.8851   30.6545 C   0  0  0  0  0  0  0  0  0  0  0  0
  -11.2465  -27.0141   29.8993 C   0  0  0  0  0  0  0  0  0  0  0  0
  -12.9150  -31.6779   26.4696 N   0  0  0  0  0  0  0  0  0  0  0  0
  -12.3275  -32.6818   25.6503 C   0  0  0  0  0  0  0  0  0  0  0  0
  -12.9344  -33.8295   25.1226 C   0  0  0  0  0  0  0  0  0  0  0  0
  -10.3110  -35.1243   23.2960 H   0  0  0  0  0  0  0  0  0  0  0  0
   -9.2158  -33.1066   24.2442 H   0  0  0  0  0  0  0  0  0  0  0  0
  -12.8972  -29.7924   28.6913 H   0  0  0  0  0  0  0  0  0  0  0  0
  -11.6306  -27.8570   26.6822 H   0  0  0  0  0  0  0  0  0  0  0  0
  -12.5281  -25.4291   27.2287 H   0  0  0  0  0  0  0  0  0  0  0  0
  -11.9524  -23.5354   28.6987 H   0  0  0  0  0  0  0  0  0  0  0  0
  -10.4333  -25.9806   31.6236 H   0  0  0  0  0  0  0  0  0  0  0  0
  -10.9832  -27.9493   30.3598 H   0  0  0  0  0  0  0  0  0  0  0  0
  -13.9787  -34.0115   25.3619 H   0  0  0  0  0  0  0  0  0  0  0  0
  1  2  2  0
  2  3  1  0
  2  4  1  0
  4  5  2  0
  5  6  1  0
  6  7  2  0
  7  8  1  0
  8  9  1  0
  9 10  1  0
 10 11  2  3
 11 12  1  0
 12 13  2  0
 13 14  1  0
 14 15  2  0
 15 16  1  0
 16 17  2  0
  9 18  2  0
 18 19  1  0
 19 20  2  0
 20  4  1  0
 19  7  1  0
 17 12  1  0
  5 21  1  0
  6 22  1  0
 10 23  1  0
 11 24  1  0
 13 25  1  0
 14 26  1  0
 16 27  1  0
 17 28  1  0
 20 29  1  0
M  CHG  2   2   1   3  -1
M  END
>  <Energy>  (1405) 
87.973651374740484

>  <compound_id>  (1405) 
6762

>  <target_id>  (1405) 
1

>  <reference_id>  (1405) 
82

>  <inspiration_ids>  (1405) 
[68, 82]

>  <energy_score>  (1405) 
-47.86672912180052

>  <distance_score>  (1405) 
4.817856163951096

>  <path>  (1405) 
/opt/xchem-fragalysis-2/maxwin/BulkDock/SCRATCH/511018/C6762-P82/C6762-P82.minimised.mol

>  <scratch_subdir>  (1405) 
/opt/xchem-fragalysis-2/maxwin/BulkDock/SCRATCH/511018/C6762-P82

>  <fragmenstein_runtime>  (1405) 
2.0007498264312744

>  <fragmenstein_outcome>  (1405) 
too moved

>  <fragmenstein_mode>  (1405) 
expansion

>  <fragmenstein_error>  (1405) 


$$$$
C6763-P68
     RDKit          3D

 41 46  0  0  0  0  0  0  0  0999 V2000
  -12.5126  -35.4816   25.0886 C   0  0  0  0  0  0  0  0  0  0  0  0
  -11.1348  -35.3391   25.2289 C   0  0  0  0  0  0  0  0  0  0  0  0
  -10.6209  -34.0640   25.5471 C   0  0  0  0  0  0  0  0  0  0  0  0
  -11.4669  -32.9119   25.5331 C   0  0  0  0  0  0  0  0  0  0  0  0
  -11.2865  -31.3381   26.4743 C   0  0  0  0  0  0  0  0  0  0  0  0
  -10.1948  -30.4559   27.2940 N   0  0  0  0  0  0  0  0  0  0  0  0
  -10.7393  -28.9147   27.7948 N   0  0  0  0  0  0  0  0  0  0  0  0
  -11.6534  -28.2533   29.2178 C   0  0  0  0  0  0  0  0  0  0  0  0
  -11.9774  -28.7371   31.0527 C   0  0  0  0  0  0  0  0  0  0  0  0
  -11.7675  -28.0343   32.2426 C   0  0  0  0  0  0  0  0  0  0  0  0
  -12.3924  -28.2819   33.5577 C   0  0  0  0  0  0  0  0  0  0  0  0
  -13.1033  -29.3326   33.9374 N   0  0  0  0  0  0  0  0  0  0  0  0
  -13.1438  -30.2038   32.9780 C   0  0  0  0  0  0  0  0  0  0  0  0
  -12.6119  -29.9299   31.6939 C   0  0  0  0  0  0  0  0  0  0  0  0
  -12.3594  -27.4137   28.5411 N   0  0  0  0  0  0  0  0  0  0  0  0
  -11.8640  -27.2595   27.0793 N   0  0  0  0  0  0  0  0  0  0  0  0
  -11.4608  -28.4733   26.7509 C   0  0  0  0  0  0  0  0  0  0  0  0
  -12.8114  -30.4055   26.3378 S   0  0  0  0  0  0  0  0  0  0  0  0
  -12.6117  -33.1226   24.7400 C   0  0  0  0  0  0  0  0  0  0  0  0
  -12.3968  -33.0834   23.2110 C   0  0  0  0  0  0  0  0  0  0  0  0
  -13.2384  -33.6487   22.3603 N   0  0  0  0  0  0  0  0  0  0  0  0
  -12.5167  -34.5899   21.6374 C   0  0  0  0  0  0  0  0  0  0  0  0
  -13.0479  -35.6904   20.9426 C   0  0  0  0  0  0  0  0  0  0  0  0
  -12.1823  -36.6457   20.4009 C   0  0  0  0  0  0  0  0  0  0  0  0
  -10.8044  -36.5112   20.5340 C   0  0  0  0  0  0  0  0  0  0  0  0
  -10.2543  -35.4057   21.1831 C   0  0  0  0  0  0  0  0  0  0  0  0
  -11.1303  -34.4464   21.7024 C   0  0  0  0  0  0  0  0  0  0  0  0
  -10.8084  -32.9560   22.5048 S   0  0  0  0  0  0  0  0  0  0  0  0
  -13.2955  -34.3298   24.9952 C   0  0  0  0  0  0  0  0  0  0  0  0
  -12.9629  -36.4648   24.9805 H   0  0  0  0  0  0  0  0  0  0  0  0
  -10.4874  -36.2129   25.2540 H   0  0  0  0  0  0  0  0  0  0  0  0
   -9.5989  -34.0709   25.9163 H   0  0  0  0  0  0  0  0  0  0  0  0
  -11.1859  -27.1657   32.3403 H   0  0  0  0  0  0  0  0  0  0  0  0
  -12.2516  -27.6000   34.3807 H   0  0  0  0  0  0  0  0  0  0  0  0
  -13.5674  -31.1749   33.2164 H   0  0  0  0  0  0  0  0  0  0  0  0
  -12.5994  -30.9148   31.2629 H   0  0  0  0  0  0  0  0  0  0  0  0
  -14.1238  -35.8129   20.8702 H   0  0  0  0  0  0  0  0  0  0  0  0
  -12.5946  -37.5076   19.8807 H   0  0  0  0  0  0  0  0  0  0  0  0
  -10.1461  -37.2726   20.1204 H   0  0  0  0  0  0  0  0  0  0  0  0
   -9.1818  -35.3123   21.3063 H   0  0  0  0  0  0  0  0  0  0  0  0
  -14.3317  -34.4465   24.6726 H   0  0  0  0  0  0  0  0  0  0  0  0
  1  2  2  0
  2  3  1  0
  3  4  2  0
  4  5  1  0
  5  6  2  0
  6  7  1  0
  7  8  1  0
  8  9  1  0
  9 10  2  0
 10 11  1  0
 11 12  2  0
 12 13  1  0
 13 14  2  0
  8 15  2  0
 15 16  1  0
 16 17  2  0
 17 18  1  0
  4 19  1  0
 19 20  1  0
 20 21  2  0
 21 22  1  0
 22 23  2  0
 23 24  1  0
 24 25  2  0
 25 26  1  0
 26 27  2  0
 27 28  1  0
 19 29  2  0
 29  1  1  0
 18  5  1  0
 28 20  1  0
 17  7  1  0
 27 22  1  0
 14  9  1  0
  1 30  1  0
  2 31  1  0
  3 32  1  0
 10 33  1  0
 11 34  1  0
 13 35  1  0
 14 36  1  0
 23 37  1  0
 24 38  1  0
 25 39  1  0
 26 40  1  0
 29 41  1  0
M  END
>  <Energy>  (1406) 
618.54527678132592

>  <compound_id>  (1406) 
6763

>  <target_id>  (1406) 
1

>  <reference_id>  (1406) 
68

>  <inspiration_ids>  (1406) 
[68, 82]

>  <energy_score>  (1406) 
395.8358751713399

>  <distance_score>  (1406) 
4.988557611336653

>  <path>  (1406) 
/opt/xchem-fragalysis-2/maxwin/BulkDock/SCRATCH/511018/C6763-P68/C6763-P68.minimised.mol

>  <scratch_subdir>  (1406) 
/opt/xchem-fragalysis-2/maxwin/BulkDock/SCRATCH/511018/C6763-P68

>  <fragmenstein_runtime>  (1406) 
16.316486358642578

>  <fragmenstein_outcome>  (1406) 
too moved

>  <fragmenstein_mode>  (1406) 
expansion

>  <fragmenstein_error>  (1406) 


$$$$
C6763-P82
     RDKit          3D

 41 46  0  0  0  0  0  0  0  0999 V2000
  -11.6417  -27.1994   24.0039 C   0  0  0  0  0  0  0  0  0  0  0  0
  -12.9024  -26.6990   23.6835 C   0  0  0  0  0  0  0  0  0  0  0  0
  -13.8572  -26.6144   24.6928 C   0  0  0  0  0  0  0  0  0  0  0  0
  -13.4473  -26.9476   25.9914 C   0  0  0  0  0  0  0  0  0  0  0  0
  -12.9494  -25.7414   26.7640 C   0  0  0  0  0  0  0  0  0  0  0  0
  -12.5884  -25.7882   28.0215 N   0  0  0  0  0  0  0  0  0  0  0  0
  -12.1875  -24.5109   28.3413 N   0  0  0  0  0  0  0  0  0  0  0  0
  -11.8017  -23.8550   29.4834 C   0  0  0  0  0  0  0  0  0  0  0  0
  -11.5562  -24.4302   30.7808 C   0  0  0  0  0  0  0  0  0  0  0  0
  -12.3672  -24.0919   31.8574 C   0  0  0  0  0  0  0  0  0  0  0  0
  -11.9605  -24.4802   33.1174 C   0  0  0  0  0  0  0  0  0  0  0  0
  -10.8033  -25.1312   33.3680 N   0  0  0  0  0  0  0  0  0  0  0  0
  -10.0389  -25.4268   32.3000 C   0  0  0  0  0  0  0  0  0  0  0  0
  -10.3848  -25.1427   30.9984 C   0  0  0  0  0  0  0  0  0  0  0  0
  -11.6280  -22.5674   29.1974 N   0  0  0  0  0  0  0  0  0  0  0  0
  -11.8573  -22.3829   27.8527 N   0  0  0  0  0  0  0  0  0  0  0  0
  -12.1880  -23.5500   27.3910 C   0  0  0  0  0  0  0  0  0  0  0  0
  -12.7462  -24.1685   25.9168 S   0  0  0  0  0  0  0  0  0  0  0  0
  -12.5252  -27.9883   26.1017 C   0  0  0  0  0  0  0  0  0  0  0  0
  -13.0035  -29.3888   26.3546 C   0  0  0  0  0  0  0  0  0  0  0  0
  -14.2279  -29.8305   26.1192 N   0  0  0  0  0  0  0  0  0  0  0  0
  -14.1973  -31.1936   25.8165 C   0  0  0  0  0  0  0  0  0  0  0  0
  -15.2529  -31.9629   25.2874 C   0  0  0  0  0  0  0  0  0  0  0  0
  -15.0133  -33.2666   24.8309 C   0  0  0  0  0  0  0  0  0  0  0  0
  -13.7371  -33.8107   24.8833 C   0  0  0  0  0  0  0  0  0  0  0  0
  -12.6860  -33.0837   25.4399 C   0  0  0  0  0  0  0  0  0  0  0  0
  -12.9520  -31.7979   25.9506 C   0  0  0  0  0  0  0  0  0  0  0  0
  -11.9190  -30.6659   26.7551 S   0  0  0  0  0  0  0  0  0  0  0  0
  -11.4349  -27.8333   25.2389 C   0  0  0  0  0  0  0  0  0  0  0  0
  -10.8537  -27.2068   23.2530 H   0  0  0  0  0  0  0  0  0  0  0  0
  -13.0961  -26.2927   22.6948 H   0  0  0  0  0  0  0  0  0  0  0  0
  -14.7550  -26.0235   24.5226 H   0  0  0  0  0  0  0  0  0  0  0  0
  -13.2906  -23.5386   31.7174 H   0  0  0  0  0  0  0  0  0  0  0  0
  -12.5682  -24.2536   33.9866 H   0  0  0  0  0  0  0  0  0  0  0  0
   -9.0786  -25.8746   32.5167 H   0  0  0  0  0  0  0  0  0  0  0  0
   -9.7083  -25.3892   30.1889 H   0  0  0  0  0  0  0  0  0  0  0  0
  -16.2387  -31.5187   25.1881 H   0  0  0  0  0  0  0  0  0  0  0  0
  -15.8316  -33.8444   24.4062 H   0  0  0  0  0  0  0  0  0  0  0  0
  -13.5557  -34.8119   24.4980 H   0  0  0  0  0  0  0  0  0  0  0  0
  -11.6847  -33.5034   25.4654 H   0  0  0  0  0  0  0  0  0  0  0  0
  -10.5120  -28.3946   25.3676 H   0  0  0  0  0  0  0  0  0  0  0  0
  1  2  2  0
  2  3  1  0
  3  4  2  0
  4  5  1  0
  5  6  2  0
  6  7  1  0
  7  8  1  0
  8  9  1  0
  9 10  2  0
 10 11  1  0
 11 12  2  0
 12 13  1  0
 13 14  2  0
  8 15  2  0
 15 16  1  0
 16 17  2  0
 17 18  1  0
  4 19  1  0
 19 20  1  0
 20 21  2  0
 21 22  1  0
 22 23  2  0
 23 24  1  0
 24 25  2  0
 25 26  1  0
 26 27  2  0
 27 28  1  0
 19 29  2  0
 29  1  1  0
 18  5  1  0
 28 20  1  0
 17  7  1  0
 27 22  1  0
 14  9  1  0
  1 30  1  0
  2 31  1  0
  3 32  1  0
 10 33  1  0
 11 34  1  0
 13 35  1  0
 14 36  1  0
 23 37  1  0
 24 38  1  0
 25 39  1  0
 26 40  1  0
 29 41  1  0
M  END
>  <Energy>  (1407) 
180.23467512667202

>  <compound_id>  (1407) 
6763

>  <target_id>  (1407) 
1

>  <reference_id>  (1407) 
82

>  <inspiration_ids>  (1407) 
[68, 82]

>  <energy_score>  (1407) 
-42.47472648330859

>  <distance_score>  (1407) 
5.621975069730498

>  <path>  (1407) 
/opt/xchem-fragalysis-2/maxwin/BulkDock/SCRATCH/511018/C6763-P82/C6763-P82.minimised.mol

>  <scratch_subdir>  (1407) 
/opt/xchem-fragalysis-2/maxwin/BulkDock/SCRATCH/511018/C6763-P82

>  <fragmenstein_runtime>  (1407) 
9.191799640655518

>  <fragmenstein_outcome>  (1407) 
too moved

>  <fragmenstein_mode>  (1407) 
expansion

>  <fragmenstein_error>  (1407) 


$$$$
C6764-P68
     RDKit          3D

 37 39  0  0  0  0  0  0  0  0999 V2000
  -14.4461  -33.4727   17.5475 C   0  0  0  0  0  0  0  0  0  0  0  0
  -13.6309  -32.7409   18.5541 C   0  0  0  0  0  0  0  0  0  0  0  0
  -12.8197  -31.7487   18.2654 N   0  0  0  0  0  0  0  0  0  0  0  0
  -12.1612  -31.3225   19.4009 C   0  0  0  0  0  0  0  0  0  0  0  0
  -11.1308  -30.3552   19.4696 C   0  0  0  0  0  0  0  0  0  0  0  0
  -10.3719  -30.2019   20.6430 C   0  0  0  0  0  0  0  0  0  0  0  0
  -10.7651  -30.8899   21.7884 C   0  0  0  0  0  0  0  0  0  0  0  0
   -9.8657  -31.0914   23.1327 N   0  0  0  0  0  0  0  0  0  0  0  0
   -9.5633  -32.5757   22.3289 C   0  0  0  0  0  0  0  0  0  0  0  0
   -8.7387  -29.6128   23.4803 C   0  0  0  0  0  0  0  0  0  0  0  0
   -7.6296  -29.3737   23.1438 O   0  0  0  0  0  0  0  0  0  0  0  0
   -9.5442  -28.1894   24.8566 C   0  0  0  0  0  0  0  0  0  0  0  0
   -9.5566  -28.9744   27.0849 S   0  0  0  0  0  0  0  0  0  0  0  0
   -9.8590  -27.9295   28.4188 C   0  0  0  0  0  0  0  0  0  0  0  0
  -11.1072  -27.9784   28.1102 C   0  0  0  0  0  0  0  0  0  0  0  0
  -11.8917  -28.0582   29.2922 C   0  0  0  0  0  0  0  0  0  0  0  0
  -11.8685  -28.4074   30.6658 N   0  0  0  0  0  0  0  0  0  0  0  0
  -10.6146  -28.3905   31.0745 C   0  0  0  0  0  0  0  0  0  0  0  0
   -9.4386  -28.0451   29.9263 C   0  0  0  0  0  0  0  0  0  0  0  0
  -11.9762  -31.6536   21.7912 C   0  0  0  0  0  0  0  0  0  0  0  0
  -12.5609  -31.9581   20.5681 C   0  0  0  0  0  0  0  0  0  0  0  0
  -13.7514  -33.1413   20.2144 S   0  0  0  0  0  0  0  0  0  0  0  0
  -14.2159  -34.5427   17.5632 H   0  0  0  0  0  0  0  0  0  0  0  0
  -14.2366  -33.0985   16.5402 H   0  0  0  0  0  0  0  0  0  0  0  0
  -15.5152  -33.3391   17.7410 H   0  0  0  0  0  0  0  0  0  0  0  0
  -10.8364  -29.8359   18.5606 H   0  0  0  0  0  0  0  0  0  0  0  0
   -9.4959  -29.5594   20.6209 H   0  0  0  0  0  0  0  0  0  0  0  0
  -10.4741  -33.1374   22.0826 H   0  0  0  0  0  0  0  0  0  0  0  0
   -8.9946  -32.6219   21.4104 H   0  0  0  0  0  0  0  0  0  0  0  0
   -9.3599  -33.2476   23.1697 H   0  0  0  0  0  0  0  0  0  0  0  0
   -8.9828  -27.3372   24.9304 H   0  0  0  0  0  0  0  0  0  0  0  0
  -10.5678  -27.7760   24.8879 H   0  0  0  0  0  0  0  0  0  0  0  0
  -11.4712  -27.6357   27.1290 H   0  0  0  0  0  0  0  0  0  0  0  0
  -12.7303  -27.5056   29.0750 H   0  0  0  0  0  0  0  0  0  0  0  0
  -10.6514  -28.9404   31.9902 H   0  0  0  0  0  0  0  0  0  0  0  0
   -8.5094  -28.6197   29.9581 H   0  0  0  0  0  0  0  0  0  0  0  0
  -12.2987  -32.1716   22.6911 H   0  0  0  0  0  0  0  0  0  0  0  0
  1  2  1  0
  2  3  2  0
  3  4  1  0
  4  5  2  0
  5  6  1  0
  6  7  2  0
  7  8  1  0
  8  9  1  0
  8 10  1  0
 10 11  2  0
 10 12  1  0
 12 13  1  0
 13 14  1  0
 14 15  2  0
 15 16  1  0
 16 17  2  0
 17 18  1  0
 18 19  2  0
  7 20  1  0
 20 21  2  0
 21 22  1  0
 22  2  1  0
 21  4  1  0
 19 14  1  0
  1 23  1  0
  1 24  1  0
  1 25  1  0
  5 26  1  0
  6 27  1  0
  9 28  1  0
  9 29  1  0
  9 30  1  0
 12 31  1  0
 12 32  1  0
 15 33  1  0
 16 34  1  0
 18 35  1  0
 19 36  1  0
 20 37  1  0
M  END
>  <Energy>  (1408) 
508.17483672296157

>  <compound_id>  (1408) 
6764

>  <target_id>  (1408) 
1

>  <reference_id>  (1408) 
68

>  <inspiration_ids>  (1408) 
[68, 82]

>  <energy_score>  (1408) 
380.4986239499955

>  <distance_score>  (1408) 
6.063326718638891

>  <path>  (1408) 
/opt/xchem-fragalysis-2/maxwin/BulkDock/SCRATCH/511018/C6764-P68/C6764-P68.minimised.mol

>  <scratch_subdir>  (1408) 
/opt/xchem-fragalysis-2/maxwin/BulkDock/SCRATCH/511018/C6764-P68

>  <fragmenstein_runtime>  (1408) 
14.845633745193481

>  <fragmenstein_outcome>  (1408) 
too moved

>  <fragmenstein_mode>  (1408) 
expansion

>  <fragmenstein_error>  (1408) 


$$$$
C6764-P82
     RDKit          3D

 37 39  0  0  0  0  0  0  0  0999 V2000
   -7.8889  -37.7602   23.9626 C   0  0  0  0  0  0  0  0  0  0  0  0
   -9.0244  -36.8473   24.2645 C   0  0  0  0  0  0  0  0  0  0  0  0
   -9.9257  -37.0779   25.1951 N   0  0  0  0  0  0  0  0  0  0  0  0
  -10.8748  -36.0681   25.1998 C   0  0  0  0  0  0  0  0  0  0  0  0
  -12.0127  -35.9854   26.0294 C   0  0  0  0  0  0  0  0  0  0  0  0
  -12.9003  -34.8950   25.9266 C   0  0  0  0  0  0  0  0  0  0  0  0
  -12.6772  -33.8649   25.0003 C   0  0  0  0  0  0  0  0  0  0  0  0
  -13.6253  -32.6250   24.8672 N   0  0  0  0  0  0  0  0  0  0  0  0
  -14.2868  -33.5471   23.8135 C   0  0  0  0  0  0  0  0  0  0  0  0
  -14.0875  -32.1938   26.1651 C   0  0  0  0  0  0  0  0  0  0  0  0
  -15.0683  -32.5142   26.7948 O   0  0  0  0  0  0  0  0  0  0  0  0
  -13.1933  -31.0594   26.7522 C   0  0  0  0  0  0  0  0  0  0  0  0
  -13.9471  -29.4134   26.2487 S   0  0  0  0  0  0  0  0  0  0  0  0
  -12.8672  -28.1255   26.8558 C   0  0  0  0  0  0  0  0  0  0  0  0
  -12.6447  -26.9974   26.0657 C   0  0  0  0  0  0  0  0  0  0  0  0
  -11.9240  -25.9323   26.5913 C   0  0  0  0  0  0  0  0  0  0  0  0
  -11.4326  -25.9095   27.8431 N   0  0  0  0  0  0  0  0  0  0  0  0
  -11.6809  -26.9870   28.6039 C   0  0  0  0  0  0  0  0  0  0  0  0
  -12.3704  -28.1108   28.1462 C   0  0  0  0  0  0  0  0  0  0  0  0
  -11.5211  -33.9374   24.1842 C   0  0  0  0  0  0  0  0  0  0  0  0
  -10.6556  -35.0452   24.2820 C   0  0  0  0  0  0  0  0  0  0  0  0
   -9.2381  -35.4009   23.3693 S   0  0  0  0  0  0  0  0  0  0  0  0
   -7.4012  -38.0713   24.8920 H   0  0  0  0  0  0  0  0  0  0  0  0
   -7.1333  -37.2896   23.3266 H   0  0  0  0  0  0  0  0  0  0  0  0
   -8.2560  -38.6562   23.4524 H   0  0  0  0  0  0  0  0  0  0  0  0
  -12.1972  -36.7712   26.7572 H   0  0  0  0  0  0  0  0  0  0  0  0
  -13.7699  -34.8795   26.5823 H   0  0  0  0  0  0  0  0  0  0  0  0
  -14.7887  -34.4294   24.2361 H   0  0  0  0  0  0  0  0  0  0  0  0
  -15.1268  -32.9324   23.4579 H   0  0  0  0  0  0  0  0  0  0  0  0
  -13.6850  -33.7258   22.9126 H   0  0  0  0  0  0  0  0  0  0  0  0
  -12.1602  -31.1576   26.4278 H   0  0  0  0  0  0  0  0  0  0  0  0
  -13.2200  -31.1335   27.8432 H   0  0  0  0  0  0  0  0  0  0  0  0
  -13.0351  -26.9311   25.0565 H   0  0  0  0  0  0  0  0  0  0  0  0
  -11.7304  -25.0376   26.0044 H   0  0  0  0  0  0  0  0  0  0  0  0
  -11.2973  -26.9288   29.6197 H   0  0  0  0  0  0  0  0  0  0  0  0
  -12.5643  -28.9410   28.8104 H   0  0  0  0  0  0  0  0  0  0  0  0
  -11.2901  -33.1792   23.4527 H   0  0  0  0  0  0  0  0  0  0  0  0
  1  2  1  0
  2  3  2  0
  3  4  1  0
  4  5  2  0
  5  6  1  0
  6  7  2  0
  7  8  1  0
  8  9  1  0
  8 10  1  0
 10 11  2  0
 10 12  1  0
 12 13  1  0
 13 14  1  0
 14 15  2  0
 15 16  1  0
 16 17  2  0
 17 18  1  0
 18 19  2  0
  7 20  1  0
 20 21  2  0
 21 22  1  0
 22  2  1  0
 21  4  1  0
 19 14  1  0
  1 23  1  0
  1 24  1  0
  1 25  1  0
  5 26  1  0
  6 27  1  0
  9 28  1  0
  9 29  1  0
  9 30  1  0
 12 31  1  0
 12 32  1  0
 15 33  1  0
 16 34  1  0
 18 35  1  0
 19 36  1  0
 20 37  1  0
M  END
>  <Energy>  (1409) 
115.34135412239489

>  <compound_id>  (1409) 
6764

>  <target_id>  (1409) 
1

>  <reference_id>  (1409) 
82

>  <inspiration_ids>  (1409) 
[68, 82]

>  <energy_score>  (1409) 
-12.334858650570823

>  <distance_score>  (1409) 
4.4012887218804675

>  <path>  (1409) 
/opt/xchem-fragalysis-2/maxwin/BulkDock/SCRATCH/511018/C6764-P82/C6764-P82.minimised.mol

>  <scratch_subdir>  (1409) 
/opt/xchem-fragalysis-2/maxwin/BulkDock/SCRATCH/511018/C6764-P82

>  <fragmenstein_runtime>  (1409) 
8.976860046386719

>  <fragmenstein_outcome>  (1409) 
too moved

>  <fragmenstein_mode>  (1409) 
expansion

>  <fragmenstein_error>  (1409) 


$$$$
C6765-P68
     RDKit          3D

 45 49  0  0  0  0  0  0  0  0999 V2000
  -12.0395  -26.9049   26.6968 O   0  0  0  0  0  0  0  0  0  0  0  0
  -11.2966  -27.7427   27.1313 C   0  0  0  0  0  0  0  0  0  0  0  0
  -10.1533  -28.4374   26.4464 N   0  0  0  0  0  0  0  0  0  0  0  0
   -9.5554  -28.3571   24.6801 C   0  0  0  0  0  0  0  0  0  0  0  0
   -9.1134  -30.0959   23.3843 C   0  0  0  0  0  0  0  0  0  0  0  0
   -9.1959  -31.5335   23.7322 N   0  0  0  0  0  0  0  0  0  0  0  0
  -10.0413  -32.5560   23.2171 C   0  0  0  0  0  0  0  0  0  0  0  0
  -10.1729  -33.8559   23.7642 C   0  0  0  0  0  0  0  0  0  0  0  0
  -10.9871  -34.7989   23.1375 C   0  0  0  0  0  0  0  0  0  0  0  0
  -11.6617  -34.4588   21.9736 C   0  0  0  0  0  0  0  0  0  0  0  0
  -11.5414  -33.1755   21.4296 C   0  0  0  0  0  0  0  0  0  0  0  0
  -10.7245  -32.2322   22.0841 C   0  0  0  0  0  0  0  0  0  0  0  0
  -10.4343  -30.6190   21.6194 S   0  0  0  0  0  0  0  0  0  0  0  0
  -11.8201  -28.1980   28.9501 C   0  0  0  0  0  0  0  0  0  0  0  0
  -11.9105  -28.5528   30.3314 C   0  0  0  0  0  0  0  0  0  0  0  0
  -10.8005  -28.5104   31.1229 C   0  0  0  0  0  0  0  0  0  0  0  0
  -11.2043  -29.4654   32.3575 C   0  0  0  0  0  0  0  0  0  0  0  0
  -10.5796  -30.6915   32.6862 C   0  0  0  0  0  0  0  0  0  0  0  0
  -10.6061  -31.0372   33.9650 C   0  0  0  0  0  0  0  0  0  0  0  0
  -10.9186  -30.1098   34.8530 N   0  0  0  0  0  0  0  0  0  0  0  0
  -11.9083  -29.2543   34.4778 C   0  0  0  0  0  0  0  0  0  0  0  0
  -12.2500  -29.1086   33.1951 C   0  0  0  0  0  0  0  0  0  0  0  0
   -9.6534  -27.8815   30.1188 N   0  0  0  0  0  0  0  0  0  0  0  0
  -10.2897  -26.8763   28.9918 C   0  0  0  0  0  0  0  0  0  0  0  0
   -9.8060  -25.0484   28.8776 C   0  0  0  0  0  0  0  0  0  0  0  0
  -10.2353  -24.0163   30.4313 C   0  0  0  0  0  0  0  0  0  0  0  0
  -11.3297  -24.4508   31.7468 C   0  0  0  0  0  0  0  0  0  0  0  0
  -12.2354  -26.2991   31.4972 C   0  0  0  0  0  0  0  0  0  0  0  0
  -12.0994  -27.2108   29.6534 C   0  0  0  0  0  0  0  0  0  0  0  0
   -9.6778  -29.0298   27.1195 H   0  0  0  0  0  0  0  0  0  0  0  0
   -8.8663  -27.6363   24.7668 H   0  0  0  0  0  0  0  0  0  0  0  0
  -10.4518  -27.7014   24.5015 H   0  0  0  0  0  0  0  0  0  0  0  0
   -9.6210  -34.1095   24.6645 H   0  0  0  0  0  0  0  0  0  0  0  0
  -11.0773  -35.7992   23.5524 H   0  0  0  0  0  0  0  0  0  0  0  0
  -12.2864  -35.1957   21.4733 H   0  0  0  0  0  0  0  0  0  0  0  0
  -12.0646  -32.9138   20.5134 H   0  0  0  0  0  0  0  0  0  0  0  0
  -12.7988  -28.9142   30.8570 H   0  0  0  0  0  0  0  0  0  0  0  0
   -9.9761  -31.3064   32.0262 H   0  0  0  0  0  0  0  0  0  0  0  0
  -10.2963  -32.0128   34.2881 H   0  0  0  0  0  0  0  0  0  0  0  0
  -12.3918  -28.6337   35.2157 H   0  0  0  0  0  0  0  0  0  0  0  0
  -13.0464  -28.4183   33.0231 H   0  0  0  0  0  0  0  0  0  0  0  0
   -9.8944  -24.5240   27.9170 H   0  0  0  0  0  0  0  0  0  0  0  0
  -10.5796  -22.9277   30.0674 H   0  0  0  0  0  0  0  0  0  0  0  0
  -10.5546  -24.4484   32.5455 H   0  0  0  0  0  0  0  0  0  0  0  0
  -11.9640  -26.8939   32.4289 H   0  0  0  0  0  0  0  0  0  0  0  0
  1  2  2  0
  2  3  1  0
  3  4  1  0
  4  5  1  0
  5  6  2  0
  6  7  1  0
  7  8  2  0
  8  9  1  0
  9 10  2  0
 10 11  1  0
 11 12  2  0
 12 13  1  0
  2 14  1  0
 14 15  2  0
 15 16  1  0
 16 17  1  0
 17 18  2  0
 18 19  1  0
 19 20  2  0
 20 21  1  0
 21 22  2  0
 16 23  2  0
 23 24  1  0
 24 25  2  0
 25 26  1  0
 26 27  2  0
 27 28  1  0
 28 29  2  0
 13  5  1  0
 29 14  1  0
 12  7  1  0
 22 17  1  0
 29 24  1  0
  3 30  1  0
  4 31  1  0
  4 32  1  0
  8 33  1  0
  9 34  1  0
 10 35  1  0
 11 36  1  0
 15 37  1  0
 18 38  1  0
 19 39  1  0
 21 40  1  0
 22 41  1  0
 25 42  1  0
 26 43  1  0
 27 44  1  0
 28 45  1  0
M  END
>  <Energy>  (1410) 
1540.8228888069109

>  <compound_id>  (1410) 
6765

>  <target_id>  (1410) 
1

>  <reference_id>  (1410) 
68

>  <inspiration_ids>  (1410) 
[68, 82]

>  <energy_score>  (1410) 
1424.2013907452747

>  <distance_score>  (1410) 
4.405530362008204

>  <path>  (1410) 
/opt/xchem-fragalysis-2/maxwin/BulkDock/SCRATCH/511018/C6765-P68/C6765-P68.minimised.mol

>  <scratch_subdir>  (1410) 
/opt/xchem-fragalysis-2/maxwin/BulkDock/SCRATCH/511018/C6765-P68

>  <fragmenstein_runtime>  (1410) 
23.072943687438965

>  <fragmenstein_outcome>  (1410) 
too moved

>  <fragmenstein_mode>  (1410) 
expansion

>  <fragmenstein_error>  (1410) 


$$$$
C6765-P82
     RDKit          3D

 45 49  0  0  0  0  0  0  0  0999 V2000
  -11.5975  -23.3226   28.1545 O   0  0  0  0  0  0  0  0  0  0  0  0
  -12.0354  -24.2346   28.7922 C   0  0  0  0  0  0  0  0  0  0  0  0
  -12.3894  -25.5821   28.3945 N   0  0  0  0  0  0  0  0  0  0  0  0
  -12.4130  -26.2163   27.0786 C   0  0  0  0  0  0  0  0  0  0  0  0
  -12.8317  -27.6884   27.0711 C   0  0  0  0  0  0  0  0  0  0  0  0
  -13.9720  -28.1753   27.5253 N   0  0  0  0  0  0  0  0  0  0  0  0
  -14.0732  -29.5487   27.2880 C   0  0  0  0  0  0  0  0  0  0  0  0
  -15.1565  -30.3814   27.6385 C   0  0  0  0  0  0  0  0  0  0  0  0
  -15.1403  -31.7442   27.3156 C   0  0  0  0  0  0  0  0  0  0  0  0
  -14.0493  -32.2961   26.6651 C   0  0  0  0  0  0  0  0  0  0  0  0
  -12.9508  -31.5006   26.3383 C   0  0  0  0  0  0  0  0  0  0  0  0
  -12.9883  -30.1225   26.6381 C   0  0  0  0  0  0  0  0  0  0  0  0
  -11.8638  -28.8655   26.2983 S   0  0  0  0  0  0  0  0  0  0  0  0
  -12.1988  -24.0018   30.2717 C   0  0  0  0  0  0  0  0  0  0  0  0
  -13.0812  -23.0536   30.7899 C   0  0  0  0  0  0  0  0  0  0  0  0
  -13.5471  -23.1537   32.0924 C   0  0  0  0  0  0  0  0  0  0  0  0
  -14.7999  -22.5512   32.6128 C   0  0  0  0  0  0  0  0  0  0  0  0
  -15.3742  -23.0253   33.8021 C   0  0  0  0  0  0  0  0  0  0  0  0
  -16.5575  -22.4784   34.2768 C   0  0  0  0  0  0  0  0  0  0  0  0
  -17.2240  -21.4840   33.6598 N   0  0  0  0  0  0  0  0  0  0  0  0
  -16.7014  -21.0652   32.4934 C   0  0  0  0  0  0  0  0  0  0  0  0
  -15.5244  -21.5619   31.9462 C   0  0  0  0  0  0  0  0  0  0  0  0
  -12.8781  -23.9065   32.9677 N   0  0  0  0  0  0  0  0  0  0  0  0
  -11.8063  -24.5478   32.5302 C   0  0  0  0  0  0  0  0  0  0  0  0
  -10.9931  -25.0272   33.4982 C   0  0  0  0  0  0  0  0  0  0  0  0
   -9.7404  -25.4614   33.1532 C   0  0  0  0  0  0  0  0  0  0  0  0
   -9.3935  -25.6542   31.8343 C   0  0  0  0  0  0  0  0  0  0  0  0
  -10.2566  -25.3347   30.8203 C   0  0  0  0  0  0  0  0  0  0  0  0
  -11.4293  -24.6799   31.1810 C   0  0  0  0  0  0  0  0  0  0  0  0
  -12.8114  -26.0623   29.1867 H   0  0  0  0  0  0  0  0  0  0  0  0
  -13.1194  -25.6463   26.4648 H   0  0  0  0  0  0  0  0  0  0  0  0
  -11.4194  -26.0767   26.6394 H   0  0  0  0  0  0  0  0  0  0  0  0
  -16.0143  -29.9516   28.1484 H   0  0  0  0  0  0  0  0  0  0  0  0
  -15.9907  -32.3691   27.5803 H   0  0  0  0  0  0  0  0  0  0  0  0
  -14.0387  -33.3578   26.4258 H   0  0  0  0  0  0  0  0  0  0  0  0
  -12.0917  -31.9642   25.8641 H   0  0  0  0  0  0  0  0  0  0  0  0
  -13.4950  -22.3287   30.1280 H   0  0  0  0  0  0  0  0  0  0  0  0
  -14.9087  -23.8397   34.3509 H   0  0  0  0  0  0  0  0  0  0  0  0
  -17.0085  -22.8467   35.1932 H   0  0  0  0  0  0  0  0  0  0  0  0
  -17.2758  -20.2994   31.9802 H   0  0  0  0  0  0  0  0  0  0  0  0
  -15.2021  -21.1913   30.9900 H   0  0  0  0  0  0  0  0  0  0  0  0
  -11.2945  -24.9429   34.5321 H   0  0  0  0  0  0  0  0  0  0  0  0
   -9.0013  -25.6700   33.9087 H   0  0  0  0  0  0  0  0  0  0  0  0
   -8.4176  -26.0637   31.6613 H   0  0  0  0  0  0  0  0  0  0  0  0
   -9.9380  -25.4588   29.7907 H   0  0  0  0  0  0  0  0  0  0  0  0
  1  2  2  0
  2  3  1  0
  3  4  1  0
  4  5  1  0
  5  6  2  0
  6  7  1  0
  7  8  2  0
  8  9  1  0
  9 10  2  0
 10 11  1  0
 11 12  2  0
 12 13  1  0
  2 14  1  0
 14 15  2  0
 15 16  1  0
 16 17  1  0
 17 18  2  0
 18 19  1  0
 19 20  2  0
 20 21  1  0
 21 22  2  0
 16 23  2  0
 23 24  1  0
 24 25  2  0
 25 26  1  0
 26 27  2  0
 27 28  1  0
 28 29  2  0
 13  5  1  0
 29 14  1  0
 12  7  1  0
 22 17  1  0
 29 24  1  0
  3 30  1  0
  4 31  1  0
  4 32  1  0
  8 33  1  0
  9 34  1  0
 10 35  1  0
 11 36  1  0
 15 37  1  0
 18 38  1  0
 19 39  1  0
 21 40  1  0
 22 41  1  0
 25 42  1  0
 26 43  1  0
 27 44  1  0
 28 45  1  0
M  END
>  <Energy>  (1411) 
73.774719506741619

>  <compound_id>  (1411) 
6765

>  <target_id>  (1411) 
1

>  <reference_id>  (1411) 
82

>  <inspiration_ids>  (1411) 
[68, 82]

>  <energy_score>  (1411) 
-42.84677855489463

>  <distance_score>  (1411) 
6.491484294302939

>  <path>  (1411) 
/opt/xchem-fragalysis-2/maxwin/BulkDock/SCRATCH/511018/C6765-P82/C6765-P82.minimised.mol

>  <scratch_subdir>  (1411) 
/opt/xchem-fragalysis-2/maxwin/BulkDock/SCRATCH/511018/C6765-P82

>  <fragmenstein_runtime>  (1411) 
17.351229190826416

>  <fragmenstein_outcome>  (1411) 
too moved

>  <fragmenstein_mode>  (1411) 
expansion

>  <fragmenstein_error>  (1411) 


$$$$
C6766-P68
     RDKit          3D

 48 52  0  0  0  0  0  0  0  0999 V2000
  -13.8103  -30.3296   26.3853 O   0  0  0  0  0  0  0  0  0  0  0  0
  -12.6424  -30.5836   26.5287 C   0  0  0  0  0  0  0  0  0  0  0  0
  -11.2829  -29.1280   27.2065 C   0  0  0  0  0  0  0  0  0  0  0  0
  -10.9071  -28.3100   28.2907 O   0  0  0  0  0  0  0  0  0  0  0  0
  -11.8662  -28.1153   29.2578 C   0  0  0  0  0  0  0  0  0  0  0  0
  -12.5952  -27.2576   28.9183 O   0  0  0  0  0  0  0  0  0  0  0  0
  -12.2034  -28.7221   30.9485 C   0  0  0  0  0  0  0  0  0  0  0  0
  -13.0103  -29.5812   31.7645 C   0  0  0  0  0  0  0  0  0  0  0  0
  -12.2515  -30.2459   32.6841 C   0  0  0  0  0  0  0  0  0  0  0  0
  -12.6544  -31.1516   33.7308 C   0  0  0  0  0  0  0  0  0  0  0  0
  -12.5715  -32.5364   33.5855 C   0  0  0  0  0  0  0  0  0  0  0  0
  -12.9668  -33.3399   34.6442 C   0  0  0  0  0  0  0  0  0  0  0  0
  -13.4275  -32.8666   35.8236 N   0  0  0  0  0  0  0  0  0  0  0  0
  -13.4661  -31.5241   35.9543 C   0  0  0  0  0  0  0  0  0  0  0  0
  -13.1004  -30.6440   34.9518 C   0  0  0  0  0  0  0  0  0  0  0  0
  -10.9590  -29.9461   32.5049 N   0  0  0  0  0  0  0  0  0  0  0  0
  -10.6865  -28.7593   31.5870 C   0  0  0  0  0  0  0  0  0  0  0  0
   -9.5167  -28.0440   30.4460 C   0  0  0  0  0  0  0  0  0  0  0  0
   -8.9136  -26.8376   30.7267 C   0  0  0  0  0  0  0  0  0  0  0  0
   -9.5043  -26.3066   31.9207 C   0  0  0  0  0  0  0  0  0  0  0  0
  -10.9575  -27.0677   32.5031 C   0  0  0  0  0  0  0  0  0  0  0  0
  -11.6580  -28.0777   31.9498 C   0  0  0  0  0  0  0  0  0  0  0  0
  -11.8901  -31.8161   26.2069 N   0  0  0  0  0  0  0  0  0  0  0  0
  -12.2830  -32.9830   25.5694 C   0  0  0  0  0  0  0  0  0  0  0  0
  -11.3536  -33.8583   25.2681 N   0  0  0  0  0  0  0  0  0  0  0  0
  -11.8645  -34.8367   24.4525 C   0  0  0  0  0  0  0  0  0  0  0  0
  -11.1377  -35.9056   23.8962 C   0  0  0  0  0  0  0  0  0  0  0  0
  -11.7874  -36.8068   23.0526 C   0  0  0  0  0  0  0  0  0  0  0  0
  -13.1411  -36.6526   22.7684 C   0  0  0  0  0  0  0  0  0  0  0  0
  -13.8842  -35.6051   23.3252 C   0  0  0  0  0  0  0  0  0  0  0  0
  -13.2243  -34.7042   24.1724 C   0  0  0  0  0  0  0  0  0  0  0  0
  -13.8385  -33.3206   25.0202 S   0  0  0  0  0  0  0  0  0  0  0  0
  -10.2948  -29.6107   27.1329 H   0  0  0  0  0  0  0  0  0  0  0  0
  -11.3211  -28.2668   26.4724 H   0  0  0  0  0  0  0  0  0  0  0  0
  -14.0758  -29.7460   31.6973 H   0  0  0  0  0  0  0  0  0  0  0  0
  -12.2018  -32.9848   32.6688 H   0  0  0  0  0  0  0  0  0  0  0  0
  -12.9165  -34.4220   34.5681 H   0  0  0  0  0  0  0  0  0  0  0  0
  -13.8016  -31.1506   36.9168 H   0  0  0  0  0  0  0  0  0  0  0  0
  -13.1515  -29.5726   35.1285 H   0  0  0  0  0  0  0  0  0  0  0  0
   -8.8585  -28.7166   29.8588 H   0  0  0  0  0  0  0  0  0  0  0  0
   -8.0613  -26.3300   30.3336 H   0  0  0  0  0  0  0  0  0  0  0  0
   -9.2683  -25.2963   32.2943 H   0  0  0  0  0  0  0  0  0  0  0  0
  -11.3228  -26.9118   33.4788 H   0  0  0  0  0  0  0  0  0  0  0  0
  -10.8985  -31.6560   26.3809 H   0  0  0  0  0  0  0  0  0  0  0  0
  -10.0797  -36.0120   24.1151 H   0  0  0  0  0  0  0  0  0  0  0  0
  -11.2302  -37.6306   22.6122 H   0  0  0  0  0  0  0  0  0  0  0  0
  -13.6341  -37.3616   22.1053 H   0  0  0  0  0  0  0  0  0  0  0  0
  -14.9416  -35.4952   23.1040 H   0  0  0  0  0  0  0  0  0  0  0  0
  1  2  2  0
  2  3  1  0
  3  4  1  0
  4  5  1  0
  5  6  2  0
  5  7  1  0
  7  8  2  0
  8  9  1  0
  9 10  1  0
 10 11  2  0
 11 12  1  0
 12 13  2  0
 13 14  1  0
 14 15  2  0
  9 16  2  0
 16 17  1  0
 17 18  2  0
 18 19  1  0
 19 20  2  0
 20 21  1  0
 21 22  2  0
  2 23  1  0
 23 24  1  0
 24 25  2  0
 25 26  1  0
 26 27  2  0
 27 28  1  0
 28 29  2  0
 29 30  1  0
 30 31  2  0
 31 32  1  0
 22  7  1  0
 32 24  1  0
 15 10  1  0
 22 17  1  0
 31 26  1  0
  3 33  1  0
  3 34  1  0
  8 35  1  0
 11 36  1  0
 12 37  1  0
 14 38  1  0
 15 39  1  0
 18 40  1  0
 19 41  1  0
 20 42  1  0
 21 43  1  0
 23 44  1  0
 27 45  1  0
 28 46  1  0
 29 47  1  0
 30 48  1  0
M  END
>  <Energy>  (1412) 
520.77258878457599

>  <compound_id>  (1412) 
6766

>  <target_id>  (1412) 
1

>  <reference_id>  (1412) 
68

>  <inspiration_ids>  (1412) 
[68, 82]

>  <energy_score>  (1412) 
387.31662181288584

>  <distance_score>  (1412) 
4.879922803413438

>  <path>  (1412) 
/opt/xchem-fragalysis-2/maxwin/BulkDock/SCRATCH/511018/C6766-P68/C6766-P68.minimised.mol

>  <scratch_subdir>  (1412) 
/opt/xchem-fragalysis-2/maxwin/BulkDock/SCRATCH/511018/C6766-P68

>  <fragmenstein_runtime>  (1412) 
22.416800498962402

>  <fragmenstein_outcome>  (1412) 
too moved

>  <fragmenstein_mode>  (1412) 
expansion

>  <fragmenstein_error>  (1412) 


$$$$
C6766-P82
     RDKit          3D

 48 52  0  0  0  0  0  0  0  0999 V2000
  -12.0826  -30.3884   26.5640 O   0  0  0  0  0  0  0  0  0  0  0  0
  -13.1679  -30.8849   26.4764 C   0  0  0  0  0  0  0  0  0  0  0  0
  -14.3937  -30.0643   26.9786 C   0  0  0  0  0  0  0  0  0  0  0  0
  -14.2756  -28.6315   26.8660 O   0  0  0  0  0  0  0  0  0  0  0  0
  -13.4189  -28.0325   27.7434 C   0  0  0  0  0  0  0  0  0  0  0  0
  -12.9082  -28.6071   28.6937 O   0  0  0  0  0  0  0  0  0  0  0  0
  -13.2637  -26.4955   27.4447 C   0  0  0  0  0  0  0  0  0  0  0  0
  -12.7492  -25.6931   28.4518 C   0  0  0  0  0  0  0  0  0  0  0  0
  -11.4026  -25.6058   28.6555 C   0  0  0  0  0  0  0  0  0  0  0  0
  -10.9517  -25.1052   29.9588 C   0  0  0  0  0  0  0  0  0  0  0  0
  -11.5963  -24.0190   30.5855 C   0  0  0  0  0  0  0  0  0  0  0  0
  -11.3005  -23.7032   31.9011 C   0  0  0  0  0  0  0  0  0  0  0  0
  -10.3449  -24.3261   32.6087 N   0  0  0  0  0  0  0  0  0  0  0  0
   -9.7252  -25.3541   31.9939 C   0  0  0  0  0  0  0  0  0  0  0  0
  -10.0242  -25.8027   30.7169 C   0  0  0  0  0  0  0  0  0  0  0  0
  -10.5980  -26.1558   27.7359 N   0  0  0  0  0  0  0  0  0  0  0  0
  -11.2017  -26.5907   26.5793 C   0  0  0  0  0  0  0  0  0  0  0  0
  -10.6271  -27.3925   25.6383 C   0  0  0  0  0  0  0  0  0  0  0  0
  -11.3225  -27.7565   24.4848 C   0  0  0  0  0  0  0  0  0  0  0  0
  -12.6349  -27.4101   24.2314 C   0  0  0  0  0  0  0  0  0  0  0  0
  -13.2824  -26.6923   25.1765 C   0  0  0  0  0  0  0  0  0  0  0  0
  -12.5587  -26.4239   26.3265 C   0  0  0  0  0  0  0  0  0  0  0  0
  -13.5815  -32.1567   25.9301 N   0  0  0  0  0  0  0  0  0  0  0  0
  -12.8735  -33.1187   25.2775 C   0  0  0  0  0  0  0  0  0  0  0  0
  -11.6007  -33.0839   24.9900 N   0  0  0  0  0  0  0  0  0  0  0  0
  -11.2436  -34.2027   24.2618 C   0  0  0  0  0  0  0  0  0  0  0  0
   -9.9701  -34.4707   23.7263 C   0  0  0  0  0  0  0  0  0  0  0  0
   -9.7521  -35.6504   23.0122 C   0  0  0  0  0  0  0  0  0  0  0  0
  -10.7886  -36.5574   22.8207 C   0  0  0  0  0  0  0  0  0  0  0  0
  -12.0675  -36.3068   23.3292 C   0  0  0  0  0  0  0  0  0  0  0  0
  -12.2752  -35.1165   24.0442 C   0  0  0  0  0  0  0  0  0  0  0  0
  -13.7217  -34.4983   24.7647 S   0  0  0  0  0  0  0  0  0  0  0  0
  -15.2717  -30.3330   26.3819 H   0  0  0  0  0  0  0  0  0  0  0  0
  -14.6044  -30.3462   28.0168 H   0  0  0  0  0  0  0  0  0  0  0  0
  -13.3750  -25.2804   29.2209 H   0  0  0  0  0  0  0  0  0  0  0  0
  -12.3604  -23.4404   30.0756 H   0  0  0  0  0  0  0  0  0  0  0  0
  -11.8191  -22.9013   32.4166 H   0  0  0  0  0  0  0  0  0  0  0  0
   -8.9459  -25.8269   32.5769 H   0  0  0  0  0  0  0  0  0  0  0  0
   -9.5801  -26.7164   30.3408 H   0  0  0  0  0  0  0  0  0  0  0  0
   -9.6232  -27.7721   25.7796 H   0  0  0  0  0  0  0  0  0  0  0  0
  -10.7643  -28.2634   23.7075 H   0  0  0  0  0  0  0  0  0  0  0  0
  -13.1247  -27.6920   23.3117 H   0  0  0  0  0  0  0  0  0  0  0  0
  -14.3436  -26.4868   25.0811 H   0  0  0  0  0  0  0  0  0  0  0  0
  -14.5679  -32.2826   26.0982 H   0  0  0  0  0  0  0  0  0  0  0  0
   -9.1719  -33.7446   23.8494 H   0  0  0  0  0  0  0  0  0  0  0  0
   -8.7667  -35.8461   22.5941 H   0  0  0  0  0  0  0  0  0  0  0  0
  -10.6042  -37.4701   22.2575 H   0  0  0  0  0  0  0  0  0  0  0  0
  -12.8763  -37.0124   23.1675 H   0  0  0  0  0  0  0  0  0  0  0  0
  1  2  2  0
  2  3  1  0
  3  4  1  0
  4  5  1  0
  5  6  2  0
  5  7  1  0
  7  8  2  0
  8  9  1  0
  9 10  1  0
 10 11  2  0
 11 12  1  0
 12 13  2  0
 13 14  1  0
 14 15  2  0
  9 16  2  0
 16 17  1  0
 17 18  2  0
 18 19  1  0
 19 20  2  0
 20 21  1  0
 21 22  2  0
  2 23  1  0
 23 24  1  0
 24 25  2  0
 25 26  1  0
 26 27  2  0
 27 28  1  0
 28 29  2  0
 29 30  1  0
 30 31  2  0
 31 32  1  0
 22  7  1  0
 32 24  1  0
 15 10  1  0
 22 17  1  0
 31 26  1  0
  3 33  1  0
  3 34  1  0
  8 35  1  0
 11 36  1  0
 12 37  1  0
 14 38  1  0
 15 39  1  0
 18 40  1  0
 19 41  1  0
 20 42  1  0
 21 43  1  0
 23 44  1  0
 27 45  1  0
 28 46  1  0
 29 47  1  0
 30 48  1  0
M  END
>  <Energy>  (1413) 
126.92306721139614

>  <compound_id>  (1413) 
6766

>  <target_id>  (1413) 
1

>  <reference_id>  (1413) 
82

>  <inspiration_ids>  (1413) 
[68, 82]

>  <energy_score>  (1413) 
-6.532899760304986

>  <distance_score>  (1413) 
4.8639948744320884

>  <path>  (1413) 
/opt/xchem-fragalysis-2/maxwin/BulkDock/SCRATCH/511018/C6766-P82/C6766-P82.minimised.mol

>  <scratch_subdir>  (1413) 
/opt/xchem-fragalysis-2/maxwin/BulkDock/SCRATCH/511018/C6766-P82

>  <fragmenstein_runtime>  (1413) 
14.423977375030518

>  <fragmenstein_outcome>  (1413) 
too moved

>  <fragmenstein_mode>  (1413) 
expansion

>  <fragmenstein_error>  (1413) 


$$$$
C6767-P68
     RDKit          3D

 42 46  0  0  0  0  0  0  0  0999 V2000
  -10.9466  -32.7085   31.6828 O   0  0  0  0  0  0  0  0  0  0  0  0
  -10.9135  -31.8724   30.8003 C   0  0  0  0  0  0  0  0  0  0  0  0
   -9.9454  -32.2959   29.0572 N   0  0  0  0  0  0  0  0  0  0  0  0
   -9.1483  -33.8025   28.4060 C   0  0  0  0  0  0  0  0  0  0  0  0
   -8.7536  -35.1339   28.3524 N   0  0  0  0  0  0  0  0  0  0  0  0
   -9.3243  -35.9232   27.0309 C   0  0  0  0  0  0  0  0  0  0  0  0
   -9.7643  -37.2441   26.7299 C   0  0  0  0  0  0  0  0  0  0  0  0
  -10.3893  -37.5763   25.5054 C   0  0  0  0  0  0  0  0  0  0  0  0
  -10.5809  -36.6250   24.5202 C   0  0  0  0  0  0  0  0  0  0  0  0
  -10.1126  -35.3407   24.7308 C   0  0  0  0  0  0  0  0  0  0  0  0
   -9.5126  -35.0891   25.9701 C   0  0  0  0  0  0  0  0  0  0  0  0
   -8.4623  -33.9380   26.4633 S   0  0  0  0  0  0  0  0  0  0  0  0
  -12.1464  -30.0462   31.2775 C   0  0  0  0  0  0  0  0  0  0  0  0
  -13.2614  -29.9320   32.0182 C   0  0  0  0  0  0  0  0  0  0  0  0
  -12.9177  -28.9429   32.9837 C   0  0  0  0  0  0  0  0  0  0  0  0
  -12.2719  -29.8030   33.9233 C   0  0  0  0  0  0  0  0  0  0  0  0
  -11.5092  -29.2123   34.8663 C   0  0  0  0  0  0  0  0  0  0  0  0
  -10.3000  -29.8531   34.9722 C   0  0  0  0  0  0  0  0  0  0  0  0
   -9.9246  -30.9865   34.3648 N   0  0  0  0  0  0  0  0  0  0  0  0
  -10.8327  -31.7318   33.8126 C   0  0  0  0  0  0  0  0  0  0  0  0
  -12.0444  -31.2160   33.5841 C   0  0  0  0  0  0  0  0  0  0  0  0
  -12.2391  -27.4587   33.0299 N   0  0  0  0  0  0  0  0  0  0  0  0
  -12.1042  -26.5075   31.9214 C   0  0  0  0  0  0  0  0  0  0  0  0
  -11.7235  -24.4585   31.3336 C   0  0  0  0  0  0  0  0  0  0  0  0
  -12.8427  -23.6236   29.7094 C   0  0  0  0  0  0  0  0  0  0  0  0
  -13.3457  -25.3044   28.5605 C   0  0  0  0  0  0  0  0  0  0  0  0
  -12.5954  -27.1512   29.2384 C   0  0  0  0  0  0  0  0  0  0  0  0
  -12.0900  -28.1284   30.8224 C   0  0  0  0  0  0  0  0  0  0  0  0
  -10.0822  -31.5422   28.4012 H   0  0  0  0  0  0  0  0  0  0  0  0
   -9.7413  -38.0571   27.4274 H   0  0  0  0  0  0  0  0  0  0  0  0
  -10.7238  -38.5998   25.3439 H   0  0  0  0  0  0  0  0  0  0  0  0
  -11.0414  -36.8961   23.5742 H   0  0  0  0  0  0  0  0  0  0  0  0
  -10.1306  -34.5909   23.9476 H   0  0  0  0  0  0  0  0  0  0  0  0
  -13.9469  -30.7365   32.2502 H   0  0  0  0  0  0  0  0  0  0  0  0
  -11.7346  -28.2234   35.2087 H   0  0  0  0  0  0  0  0  0  0  0  0
   -9.4615  -29.2913   35.3422 H   0  0  0  0  0  0  0  0  0  0  0  0
  -10.6002  -32.7741   33.6459 H   0  0  0  0  0  0  0  0  0  0  0  0
  -12.7688  -31.9004   33.1527 H   0  0  0  0  0  0  0  0  0  0  0  0
  -11.0408  -23.8165   31.9096 H   0  0  0  0  0  0  0  0  0  0  0  0
  -12.4889  -22.6363   29.3163 H   0  0  0  0  0  0  0  0  0  0  0  0
  -13.2293  -25.1288   27.4288 H   0  0  0  0  0  0  0  0  0  0  0  0
  -12.0491  -27.8675   28.5345 H   0  0  0  0  0  0  0  0  0  0  0  0
  1  2  2  0
  2  3  1  0
  3  4  1  0
  4  5  2  0
  5  6  1  0
  6  7  2  0
  7  8  1  0
  8  9  2  0
  9 10  1  0
 10 11  2  0
 11 12  1  0
  2 13  1  0
 13 14  2  0
 14 15  1  0
 15 16  1  0
 16 17  2  0
 17 18  1  0
 18 19  2  0
 19 20  1  0
 20 21  2  0
 15 22  2  0
 22 23  1  0
 23 24  2  0
 24 25  1  0
 25 26  2  0
 26 27  1  0
 27 28  2  0
 12  4  1  0
 28 13  1  0
 11  6  1  0
 21 16  1  0
 28 23  1  0
  3 29  1  0
  7 30  1  0
  8 31  1  0
  9 32  1  0
 10 33  1  0
 14 34  1  0
 17 35  1  0
 18 36  1  0
 20 37  1  0
 21 38  1  0
 24 39  1  0
 25 40  1  0
 26 41  1  0
 27 42  1  0
M  END
>  <Energy>  (1414) 
1906.5668899984321

>  <compound_id>  (1414) 
6767

>  <target_id>  (1414) 
1

>  <reference_id>  (1414) 
68

>  <inspiration_ids>  (1414) 
[68, 82]

>  <energy_score>  (1414) 
1791.1454955582803

>  <distance_score>  (1414) 
4.3643709157102855

>  <path>  (1414) 
/opt/xchem-fragalysis-2/maxwin/BulkDock/SCRATCH/511018/C6767-P68/C6767-P68.minimised.mol

>  <scratch_subdir>  (1414) 
/opt/xchem-fragalysis-2/maxwin/BulkDock/SCRATCH/511018/C6767-P68

>  <fragmenstein_runtime>  (1414) 
12.781851291656494

>  <fragmenstein_outcome>  (1414) 
too moved

>  <fragmenstein_mode>  (1414) 
expansion

>  <fragmenstein_error>  (1414) 


$$$$
C6767-P82
     RDKit          3D

 42 46  0  0  0  0  0  0  0  0999 V2000
  -11.2956  -27.5174   30.2741 O   0  0  0  0  0  0  0  0  0  0  0  0
  -11.8889  -26.6293   29.7422 C   0  0  0  0  0  0  0  0  0  0  0  0
  -12.5027  -26.5589   28.4411 N   0  0  0  0  0  0  0  0  0  0  0  0
  -12.6647  -27.5159   27.4739 C   0  0  0  0  0  0  0  0  0  0  0  0
  -12.1821  -28.7322   27.5285 N   0  0  0  0  0  0  0  0  0  0  0  0
  -12.9407  -29.5888   26.7607 C   0  0  0  0  0  0  0  0  0  0  0  0
  -12.7811  -30.9835   26.6673 C   0  0  0  0  0  0  0  0  0  0  0  0
  -13.7072  -31.7644   25.9737 C   0  0  0  0  0  0  0  0  0  0  0  0
  -14.7866  -31.1531   25.3481 C   0  0  0  0  0  0  0  0  0  0  0  0
  -14.9315  -29.7557   25.3636 C   0  0  0  0  0  0  0  0  0  0  0  0
  -13.9874  -28.9872   26.0693 C   0  0  0  0  0  0  0  0  0  0  0  0
  -13.8613  -27.2681   26.2880 S   0  0  0  0  0  0  0  0  0  0  0  0
  -12.1559  -25.2610   30.7069 C   0  0  0  0  0  0  0  0  0  0  0  0
  -11.9046  -25.4011   32.0809 C   0  0  0  0  0  0  0  0  0  0  0  0
  -10.6414  -25.7294   32.4706 C   0  0  0  0  0  0  0  0  0  0  0  0
  -10.2457  -26.0112   33.9283 C   0  0  0  0  0  0  0  0  0  0  0  0
   -9.0600  -25.3794   34.2854 C   0  0  0  0  0  0  0  0  0  0  0  0
   -8.4188  -25.4068   35.6562 C   0  0  0  0  0  0  0  0  0  0  0  0
   -8.5570  -26.4219   36.6478 N   0  0  0  0  0  0  0  0  0  0  0  0
   -9.6356  -27.7323   36.5141 C   0  0  0  0  0  0  0  0  0  0  0  0
  -10.5957  -27.1410   34.9193 C   0  0  0  0  0  0  0  0  0  0  0  0
   -9.6887  -25.5405   31.4813 N   0  0  0  0  0  0  0  0  0  0  0  0
  -10.0734  -24.9544   30.2572 C   0  0  0  0  0  0  0  0  0  0  0  0
   -9.6129  -25.0929   28.9310 C   0  0  0  0  0  0  0  0  0  0  0  0
  -10.2387  -24.4344   27.8262 C   0  0  0  0  0  0  0  0  0  0  0  0
  -11.2554  -23.5186   28.0063 C   0  0  0  0  0  0  0  0  0  0  0  0
  -11.7981  -23.4700   29.2566 C   0  0  0  0  0  0  0  0  0  0  0  0
  -11.3009  -24.3581   30.2146 C   0  0  0  0  0  0  0  0  0  0  0  0
  -12.9904  -25.6783   28.3545 H   0  0  0  0  0  0  0  0  0  0  0  0
  -11.9085  -31.4141   27.1306 H   0  0  0  0  0  0  0  0  0  0  0  0
  -13.5782  -32.8426   25.9224 H   0  0  0  0  0  0  0  0  0  0  0  0
  -15.5145  -31.7614   24.8147 H   0  0  0  0  0  0  0  0  0  0  0  0
  -15.7614  -29.2798   24.8499 H   0  0  0  0  0  0  0  0  0  0  0  0
  -12.6657  -25.1717   32.8148 H   0  0  0  0  0  0  0  0  0  0  0  0
   -8.7684  -24.6656   33.5107 H   0  0  0  0  0  0  0  0  0  0  0  0
   -7.8194  -24.6221   36.0714 H   0  0  0  0  0  0  0  0  0  0  0  0
   -9.2341  -28.8712   36.7287 H   0  0  0  0  0  0  0  0  0  0  0  0
  -10.7738  -27.9457   34.2306 H   0  0  0  0  0  0  0  0  0  0  0  0
   -8.8361  -25.8159   28.7298 H   0  0  0  0  0  0  0  0  0  0  0  0
   -9.9351  -24.6267   26.8105 H   0  0  0  0  0  0  0  0  0  0  0  0
  -11.6767  -22.9539   27.1814 H   0  0  0  0  0  0  0  0  0  0  0  0
  -12.6948  -22.8978   29.4525 H   0  0  0  0  0  0  0  0  0  0  0  0
  1  2  2  0
  2  3  1  0
  3  4  1  0
  4  5  2  0
  5  6  1  0
  6  7  2  0
  7  8  1  0
  8  9  2  0
  9 10  1  0
 10 11  2  0
 11 12  1  0
  2 13  1  0
 13 14  2  0
 14 15  1  0
 15 16  1  0
 16 17  2  0
 17 18  1  0
 18 19  2  0
 19 20  1  0
 20 21  2  0
 15 22  2  0
 22 23  1  0
 23 24  2  0
 24 25  1  0
 25 26  2  0
 26 27  1  0
 27 28  2  0
 12  4  1  0
 28 13  1  0
 11  6  1  0
 21 16  1  0
 28 23  1  0
  3 29  1  0
  7 30  1  0
  8 31  1  0
  9 32  1  0
 10 33  1  0
 14 34  1  0
 17 35  1  0
 18 36  1  0
 20 37  1  0
 21 38  1  0
 24 39  1  0
 25 40  1  0
 26 41  1  0
 27 42  1  0
M  END
>  <Energy>  (1415) 
381.79387498070662

>  <compound_id>  (1415) 
6767

>  <target_id>  (1415) 
1

>  <reference_id>  (1415) 
82

>  <inspiration_ids>  (1415) 
[68, 82]

>  <energy_score>  (1415) 
266.3724805405361

>  <distance_score>  (1415) 
6.167606462994157

>  <path>  (1415) 
/opt/xchem-fragalysis-2/maxwin/BulkDock/SCRATCH/511018/C6767-P82/C6767-P82.minimised.mol

>  <scratch_subdir>  (1415) 
/opt/xchem-fragalysis-2/maxwin/BulkDock/SCRATCH/511018/C6767-P82

>  <fragmenstein_runtime>  (1415) 
11.928863525390625

>  <fragmenstein_outcome>  (1415) 
too moved

>  <fragmenstein_mode>  (1415) 
expansion

>  <fragmenstein_error>  (1415) 


$$$$
C6768-P68
     RDKit          3D

 27 29  0  0  0  0  0  0  0  0999 V2000
  -15.1773  -34.5970   29.4024 O   0  0  0  0  0  0  0  0  0  0  0  0
  -15.0368  -33.5359   28.9073 C   0  0  0  0  0  0  0  0  0  0  0  0
  -14.4607  -33.1346   27.4788 N   0  0  0  0  0  0  0  0  0  0  0  0
  -13.8745  -33.9418   26.4568 C   0  0  0  0  0  0  0  0  0  0  0  0
  -13.4960  -35.2127   26.3989 N   0  0  0  0  0  0  0  0  0  0  0  0
  -12.5081  -35.4470   25.3775 C   0  0  0  0  0  0  0  0  0  0  0  0
  -11.7158  -36.5936   25.1408 C   0  0  0  0  0  0  0  0  0  0  0  0
  -11.9974  -37.9285   26.1717 Cl  0  0  0  0  0  0  0  0  0  0  0  0
  -10.7209  -36.6154   24.1605 C   0  0  0  0  0  0  0  0  0  0  0  0
  -10.5030  -35.4959   23.3661 C   0  0  0  0  0  0  0  0  0  0  0  0
  -11.2596  -34.3414   23.5568 C   0  0  0  0  0  0  0  0  0  0  0  0
  -12.2322  -34.3396   24.5812 C   0  0  0  0  0  0  0  0  0  0  0  0
  -13.2446  -33.0584   25.1098 S   0  0  0  0  0  0  0  0  0  0  0  0
  -15.3877  -32.3127   29.8850 C   0  0  0  0  0  0  0  0  0  0  0  0
  -14.8288  -32.2423   31.2022 C   0  0  0  0  0  0  0  0  0  0  0  0
  -14.9435  -31.1281   32.0385 C   0  0  0  0  0  0  0  0  0  0  0  0
  -15.7946  -30.1484   31.7535 N   0  0  0  0  0  0  0  0  0  0  0  0
  -16.5294  -30.3368   30.6274 C   0  0  0  0  0  0  0  0  0  0  0  0
  -16.2830  -31.2954   29.6188 C   0  0  0  0  0  0  0  0  0  0  0  0
  -14.5570  -32.1405   27.3423 H   0  0  0  0  0  0  0  0  0  0  0  0
  -10.1167  -37.5084   24.0188 H   0  0  0  0  0  0  0  0  0  0  0  0
   -9.7307  -35.5172   22.5997 H   0  0  0  0  0  0  0  0  0  0  0  0
  -11.0805  -33.4541   22.9558 H   0  0  0  0  0  0  0  0  0  0  0  0
  -14.2459  -33.0896   31.5677 H   0  0  0  0  0  0  0  0  0  0  0  0
  -14.4100  -31.0622   32.9809 H   0  0  0  0  0  0  0  0  0  0  0  0
  -17.3384  -29.6169   30.5089 H   0  0  0  0  0  0  0  0  0  0  0  0
  -16.8846  -31.3062   28.7169 H   0  0  0  0  0  0  0  0  0  0  0  0
  1  2  2  0
  2  3  1  0
  3  4  1  0
  4  5  2  0
  5  6  1  0
  6  7  2  0
  7  8  1  0
  7  9  1  0
  9 10  2  0
 10 11  1  0
 11 12  2  0
 12 13  1  0
  2 14  1  0
 14 15  2  0
 15 16  1  0
 16 17  2  0
 17 18  1  0
 18 19  2  0
 13  4  1  0
 19 14  1  0
 12  6  1  0
  3 20  1  0
  9 21  1  0
 10 22  1  0
 11 23  1  0
 15 24  1  0
 16 25  1  0
 18 26  1  0
 19 27  1  0
M  END
>  <Energy>  (1416) 
56.109891213180113

>  <compound_id>  (1416) 
6768

>  <target_id>  (1416) 
1

>  <reference_id>  (1416) 
68

>  <inspiration_ids>  (1416) 
[68, 82]

>  <energy_score>  (1416) 
-37.02159179445198

>  <distance_score>  (1416) 
6.782126618416679

>  <path>  (1416) 
/opt/xchem-fragalysis-2/maxwin/BulkDock/SCRATCH/511018/C6768-P68/C6768-P68.minimised.mol

>  <scratch_subdir>  (1416) 
/opt/xchem-fragalysis-2/maxwin/BulkDock/SCRATCH/511018/C6768-P68

>  <fragmenstein_runtime>  (1416) 
3.8972907066345215

>  <fragmenstein_outcome>  (1416) 
too moved

>  <fragmenstein_mode>  (1416) 
expansion

>  <fragmenstein_error>  (1416) 


$$$$
C6768-P82
     RDKit          3D

 27 29  0  0  0  0  0  0  0  0999 V2000
  -14.1870  -30.5674   25.9405 O   0  0  0  0  0  0  0  0  0  0  0  0
  -13.0693  -30.5610   26.3065 C   0  0  0  0  0  0  0  0  0  0  0  0
  -11.9279  -31.6412   26.1282 N   0  0  0  0  0  0  0  0  0  0  0  0
  -11.9192  -32.8626   25.3996 C   0  0  0  0  0  0  0  0  0  0  0  0
  -10.8974  -33.7060   25.4033 N   0  0  0  0  0  0  0  0  0  0  0  0
  -10.9263  -34.6494   24.3867 C   0  0  0  0  0  0  0  0  0  0  0  0
  -10.0330  -35.6934   24.0749 C   0  0  0  0  0  0  0  0  0  0  0  0
   -8.8642  -36.1381   25.2246 Cl  0  0  0  0  0  0  0  0  0  0  0  0
  -10.1355  -36.3931   22.8803 C   0  0  0  0  0  0  0  0  0  0  0  0
  -11.1563  -36.0906   21.9924 C   0  0  0  0  0  0  0  0  0  0  0  0
  -12.1296  -35.1483   22.3202 C   0  0  0  0  0  0  0  0  0  0  0  0
  -12.0094  -34.4650   23.5389 C   0  0  0  0  0  0  0  0  0  0  0  0
  -13.1156  -33.3622   24.3015 S   0  0  0  0  0  0  0  0  0  0  0  0
  -12.5892  -29.2369   26.9910 C   0  0  0  0  0  0  0  0  0  0  0  0
  -12.5778  -28.9970   28.3645 C   0  0  0  0  0  0  0  0  0  0  0  0
  -12.0142  -27.7894   28.8623 C   0  0  0  0  0  0  0  0  0  0  0  0
  -11.6414  -26.7510   28.1123 N   0  0  0  0  0  0  0  0  0  0  0  0
  -11.7912  -26.9331   26.7944 C   0  0  0  0  0  0  0  0  0  0  0  0
  -12.2320  -28.1293   26.2069 C   0  0  0  0  0  0  0  0  0  0  0  0
  -11.1010  -31.3510   26.6418 H   0  0  0  0  0  0  0  0  0  0  0  0
   -9.4207  -37.1751   22.6373 H   0  0  0  0  0  0  0  0  0  0  0  0
  -11.2285  -36.6316   21.0506 H   0  0  0  0  0  0  0  0  0  0  0  0
  -12.9702  -34.9658   21.6572 H   0  0  0  0  0  0  0  0  0  0  0  0
  -12.9176  -29.7725   29.0456 H   0  0  0  0  0  0  0  0  0  0  0  0
  -11.8136  -27.6396   29.9150 H   0  0  0  0  0  0  0  0  0  0  0  0
  -11.5192  -26.0834   26.1732 H   0  0  0  0  0  0  0  0  0  0  0  0
  -12.2805  -28.1865   25.1211 H   0  0  0  0  0  0  0  0  0  0  0  0
  1  2  2  0
  2  3  1  0
  3  4  1  0
  4  5  2  0
  5  6  1  0
  6  7  2  0
  7  8  1  0
  7  9  1  0
  9 10  2  0
 10 11  1  0
 11 12  2  0
 12 13  1  0
  2 14  1  0
 14 15  2  0
 15 16  1  0
 16 17  2  0
 17 18  1  0
 18 19  2  0
 13  4  1  0
 19 14  1  0
 12  6  1  0
  3 20  1  0
  9 21  1  0
 10 22  1  0
 11 23  1  0
 15 24  1  0
 16 25  1  0
 18 26  1  0
 19 27  1  0
M  END
>  <Energy>  (1417) 
47.418280667421556

>  <compound_id>  (1417) 
6768

>  <target_id>  (1417) 
1

>  <reference_id>  (1417) 
82

>  <inspiration_ids>  (1417) 
[68, 82]

>  <energy_score>  (1417) 
-45.71320234021232

>  <distance_score>  (1417) 
5.305796200971391

>  <path>  (1417) 
/opt/xchem-fragalysis-2/maxwin/BulkDock/SCRATCH/511018/C6768-P82/C6768-P82.minimised.mol

>  <scratch_subdir>  (1417) 
/opt/xchem-fragalysis-2/maxwin/BulkDock/SCRATCH/511018/C6768-P82

>  <fragmenstein_runtime>  (1417) 
2.8856143951416016

>  <fragmenstein_outcome>  (1417) 
too moved

>  <fragmenstein_mode>  (1417) 
expansion

>  <fragmenstein_error>  (1417) 


$$$$
C6769-P68
     RDKit          3D

 38 40  0  0  0  0  0  0  0  0999 V2000
  -14.1276  -30.5160   26.4874 C   0  0  0  0  0  0  0  0  0  0  0  0
  -12.5677  -30.5961   26.4434 N   0  0  0  0  0  0  0  0  0  0  0  0
  -11.3468  -29.1403   27.1358 C   0  0  0  0  0  0  0  0  0  0  0  0
  -11.5760  -27.6338   26.1900 C   0  0  0  0  0  0  0  0  0  0  0  0
  -12.4602  -27.5713   25.4020 O   0  0  0  0  0  0  0  0  0  0  0  0
  -10.5869  -26.7119   26.5175 N   0  0  0  0  0  0  0  0  0  0  0  0
  -10.2620  -25.4406   25.9489 C   0  0  0  0  0  0  0  0  0  0  0  0
  -11.1676  -24.3293   26.2965 C   0  0  0  0  0  0  0  0  0  0  0  0
  -12.1688  -23.9284   25.4366 C   0  0  0  0  0  0  0  0  0  0  0  0
  -12.5637  -22.6300   25.5672 C   0  0  0  0  0  0  0  0  0  0  0  0
  -12.1565  -21.8081   26.5797 N   0  0  0  0  0  0  0  0  0  0  0  0
  -11.4515  -22.3423   27.5904 C   0  0  0  0  0  0  0  0  0  0  0  0
  -10.8451  -23.5544   27.4281 C   0  0  0  0  0  0  0  0  0  0  0  0
  -12.5139  -32.1014   26.0111 C   0  0  0  0  0  0  0  0  0  0  0  0
  -13.5559  -32.8945   26.2901 N   0  0  0  0  0  0  0  0  0  0  0  0
  -13.5837  -34.1633   25.7005 C   0  0  0  0  0  0  0  0  0  0  0  0
  -14.5713  -35.1615   25.8014 C   0  0  0  0  0  0  0  0  0  0  0  0
  -15.9325  -34.7897   26.7663 Cl  0  0  0  0  0  0  0  0  0  0  0  0
  -14.4458  -36.3883   25.1473 C   0  0  0  0  0  0  0  0  0  0  0  0
  -13.3212  -36.6433   24.3720 C   0  0  0  0  0  0  0  0  0  0  0  0
  -12.3146  -35.6851   24.2535 C   0  0  0  0  0  0  0  0  0  0  0  0
  -12.4771  -34.4648   24.9341 C   0  0  0  0  0  0  0  0  0  0  0  0
  -11.4153  -33.1664   25.0193 S   0  0  0  0  0  0  0  0  0  0  0  0
  -14.5662  -29.5428   26.2914 H   0  0  0  0  0  0  0  0  0  0  0  0
  -14.5180  -30.9790   27.4029 H   0  0  0  0  0  0  0  0  0  0  0  0
  -14.6122  -31.0844   25.6776 H   0  0  0  0  0  0  0  0  0  0  0  0
  -10.2894  -29.4672   27.1281 H   0  0  0  0  0  0  0  0  0  0  0  0
  -11.4380  -28.7272   28.1456 H   0  0  0  0  0  0  0  0  0  0  0  0
  -10.0557  -27.0673   27.2895 H   0  0  0  0  0  0  0  0  0  0  0  0
   -9.2962  -25.0872   26.2748 H   0  0  0  0  0  0  0  0  0  0  0  0
  -10.1771  -25.5616   24.8697 H   0  0  0  0  0  0  0  0  0  0  0  0
  -12.5143  -24.5036   24.5980 H   0  0  0  0  0  0  0  0  0  0  0  0
  -13.2047  -22.1901   24.8113 H   0  0  0  0  0  0  0  0  0  0  0  0
  -11.2988  -21.7266   28.4645 H   0  0  0  0  0  0  0  0  0  0  0  0
  -10.0737  -23.8720   28.1174 H   0  0  0  0  0  0  0  0  0  0  0  0
  -15.2263  -37.1391   25.2396 H   0  0  0  0  0  0  0  0  0  0  0  0
  -13.2211  -37.5972   23.8579 H   0  0  0  0  0  0  0  0  0  0  0  0
  -11.4251  -35.8813   23.6608 H   0  0  0  0  0  0  0  0  0  0  0  0
  1  2  1  0
  2  3  1  0
  3  4  1  0
  4  5  2  0
  4  6  1  0
  6  7  1  0
  7  8  1  0
  8  9  2  0
  9 10  1  0
 10 11  2  0
 11 12  1  0
 12 13  2  0
  2 14  1  0
 14 15  2  0
 15 16  1  0
 16 17  2  0
 17 18  1  0
 17 19  1  0
 19 20  2  0
 20 21  1  0
 21 22  2  0
 22 23  1  0
 13  8  1  0
 23 14  1  0
 22 16  1  0
  1 24  1  0
  1 25  1  0
  1 26  1  0
  3 27  1  0
  3 28  1  0
  6 29  1  0
  7 30  1  0
  7 31  1  0
  9 32  1  0
 10 33  1  0
 12 34  1  0
 13 35  1  0
 19 36  1  0
 20 37  1  0
 21 38  1  0
M  END
>  <Energy>  (1418) 
233.29591295777612

>  <compound_id>  (1418) 
6769

>  <target_id>  (1418) 
1

>  <reference_id>  (1418) 
68

>  <inspiration_ids>  (1418) 
[68, 82]

>  <energy_score>  (1418) 
147.28228602983972

>  <distance_score>  (1418) 
5.800227396142162

>  <path>  (1418) 
/opt/xchem-fragalysis-2/maxwin/BulkDock/SCRATCH/511018/C6769-P68/C6769-P68.minimised.mol

>  <scratch_subdir>  (1418) 
/opt/xchem-fragalysis-2/maxwin/BulkDock/SCRATCH/511018/C6769-P68

>  <fragmenstein_runtime>  (1418) 
8.681156396865845

>  <fragmenstein_outcome>  (1418) 
too moved

>  <fragmenstein_mode>  (1418) 
expansion

>  <fragmenstein_error>  (1418) 


$$$$
C6769-P82
     RDKit          3D

 38 40  0  0  0  0  0  0  0  0999 V2000
  -13.7264  -33.0546   25.1798 C   0  0  0  0  0  0  0  0  0  0  0  0
  -12.3827  -32.4577   25.2822 N   0  0  0  0  0  0  0  0  0  0  0  0
  -12.3009  -31.4871   26.4974 C   0  0  0  0  0  0  0  0  0  0  0  0
  -13.0645  -30.0234   26.3719 C   0  0  0  0  0  0  0  0  0  0  0  0
  -14.0581  -29.9332   25.7452 O   0  0  0  0  0  0  0  0  0  0  0  0
  -12.2598  -28.9209   27.1876 N   0  0  0  0  0  0  0  0  0  0  0  0
  -12.4844  -27.4410   27.3060 C   0  0  0  0  0  0  0  0  0  0  0  0
  -11.9161  -26.5498   28.4545 C   0  0  0  0  0  0  0  0  0  0  0  0
  -11.3321  -26.9952   29.6295 C   0  0  0  0  0  0  0  0  0  0  0  0
  -10.7973  -26.1316   30.5942 C   0  0  0  0  0  0  0  0  0  0  0  0
  -10.8980  -24.8038   30.5332 N   0  0  0  0  0  0  0  0  0  0  0  0
  -11.5618  -24.3473   29.4586 C   0  0  0  0  0  0  0  0  0  0  0  0
  -12.0416  -25.1529   28.4124 C   0  0  0  0  0  0  0  0  0  0  0  0
  -11.3785  -33.4336   24.9831 C   0  0  0  0  0  0  0  0  0  0  0  0
  -11.2753  -34.6294   25.5343 N   0  0  0  0  0  0  0  0  0  0  0  0
  -10.3728  -35.4638   24.8654 C   0  0  0  0  0  0  0  0  0  0  0  0
  -10.0263  -36.7883   25.1710 C   0  0  0  0  0  0  0  0  0  0  0  0
  -10.7439  -37.4777   26.5589 Cl  0  0  0  0  0  0  0  0  0  0  0  0
   -9.1543  -37.5041   24.3611 C   0  0  0  0  0  0  0  0  0  0  0  0
   -8.6020  -36.9065   23.2329 C   0  0  0  0  0  0  0  0  0  0  0  0
   -8.8937  -35.5882   22.9062 C   0  0  0  0  0  0  0  0  0  0  0  0
   -9.7782  -34.9004   23.7437 C   0  0  0  0  0  0  0  0  0  0  0  0
  -10.3071  -33.3029   23.6003 S   0  0  0  0  0  0  0  0  0  0  0  0
  -13.8309  -33.6226   24.2476 H   0  0  0  0  0  0  0  0  0  0  0  0
  -14.5007  -32.2836   25.1646 H   0  0  0  0  0  0  0  0  0  0  0  0
  -13.9248  -33.7257   26.0233 H   0  0  0  0  0  0  0  0  0  0  0  0
  -11.2530  -31.3172   26.7588 H   0  0  0  0  0  0  0  0  0  0  0  0
  -12.8464  -31.9372   27.3297 H   0  0  0  0  0  0  0  0  0  0  0  0
  -11.4967  -29.3529   27.6747 H   0  0  0  0  0  0  0  0  0  0  0  0
  -12.0697  -27.0402   26.3725 H   0  0  0  0  0  0  0  0  0  0  0  0
  -13.5678  -27.2986   27.2483 H   0  0  0  0  0  0  0  0  0  0  0  0
  -11.3406  -28.0294   29.8815 H   0  0  0  0  0  0  0  0  0  0  0  0
  -10.3089  -26.5231   31.4830 H   0  0  0  0  0  0  0  0  0  0  0  0
  -11.7023  -23.2709   29.4199 H   0  0  0  0  0  0  0  0  0  0  0  0
  -12.5293  -24.6672   27.5708 H   0  0  0  0  0  0  0  0  0  0  0  0
   -8.9055  -38.5341   24.6029 H   0  0  0  0  0  0  0  0  0  0  0  0
   -7.9181  -37.4725   22.6025 H   0  0  0  0  0  0  0  0  0  0  0  0
   -8.4459  -35.1072   22.0402 H   0  0  0  0  0  0  0  0  0  0  0  0
  1  2  1  0
  2  3  1  0
  3  4  1  0
  4  5  2  0
  4  6  1  0
  6  7  1  0
  7  8  1  0
  8  9  2  0
  9 10  1  0
 10 11  2  0
 11 12  1  0
 12 13  2  0
  2 14  1  0
 14 15  2  0
 15 16  1  0
 16 17  2  0
 17 18  1  0
 17 19  1  0
 19 20  2  0
 20 21  1  0
 21 22  2  0
 22 23  1  0
 13  8  1  0
 23 14  1  0
 22 16  1  0
  1 24  1  0
  1 25  1  0
  1 26  1  0
  3 27  1  0
  3 28  1  0
  6 29  1  0
  7 30  1  0
  7 31  1  0
  9 32  1  0
 10 33  1  0
 12 34  1  0
 13 35  1  0
 19 36  1  0
 20 37  1  0
 21 38  1  0
M  END
>  <Energy>  (1419) 
90.166240795288957

>  <compound_id>  (1419) 
6769

>  <target_id>  (1419) 
1

>  <reference_id>  (1419) 
82

>  <inspiration_ids>  (1419) 
[68, 82]

>  <energy_score>  (1419) 
-14.259009653371322

>  <distance_score>  (1419) 
3.813013976277109

>  <path>  (1419) 
/opt/xchem-fragalysis-2/maxwin/BulkDock/SCRATCH/511018/C6769-P82/C6769-P82.minimised.mol

>  <scratch_subdir>  (1419) 
/opt/xchem-fragalysis-2/maxwin/BulkDock/SCRATCH/511018/C6769-P82

>  <fragmenstein_runtime>  (1419) 
2.9679131507873535

>  <fragmenstein_outcome>  (1419) 
too moved

>  <fragmenstein_mode>  (1419) 
expansion

>  <fragmenstein_error>  (1419) 


$$$$
C6770-P68
     RDKit          3D

 37 39  0  0  0  0  0  0  0  0999 V2000
   -9.7927  -32.6640   28.0254 C   0  0  0  0  0  0  0  0  0  0  0  0
  -11.0217  -31.4996   26.9387 N   0  0  0  0  0  0  0  0  0  0  0  0
  -10.4081  -29.6260   27.0932 C   0  0  0  0  0  0  0  0  0  0  0  0
   -9.6371  -28.9927   26.4065 O   0  0  0  0  0  0  0  0  0  0  0  0
  -11.1228  -28.5337   28.2570 C   0  0  0  0  0  0  0  0  0  0  0  0
  -11.9777  -28.1374   29.4730 O   0  0  0  0  0  0  0  0  0  0  0  0
  -11.8376  -28.6611   30.9323 C   0  0  0  0  0  0  0  0  0  0  0  0
  -10.6411  -28.0322   31.4784 C   0  0  0  0  0  0  0  0  0  0  0  0
  -10.8571  -27.0294   32.4988 C   0  0  0  0  0  0  0  0  0  0  0  0
   -9.7158  -25.6443   32.4138 C   0  0  0  0  0  0  0  0  0  0  0  0
   -8.6797  -25.3986   31.5418 N   0  0  0  0  0  0  0  0  0  0  0  0
   -8.4867  -26.4390   30.6369 C   0  0  0  0  0  0  0  0  0  0  0  0
   -9.3724  -27.6697   30.4505 C   0  0  0  0  0  0  0  0  0  0  0  0
  -10.7460  -32.8156   25.6161 C   0  0  0  0  0  0  0  0  0  0  0  0
  -10.0235  -33.9441   25.4730 N   0  0  0  0  0  0  0  0  0  0  0  0
  -10.3932  -34.6243   24.3110 C   0  0  0  0  0  0  0  0  0  0  0  0
   -9.6977  -35.6145   23.5830 C   0  0  0  0  0  0  0  0  0  0  0  0
   -8.1466  -36.0481   24.1307 Cl  0  0  0  0  0  0  0  0  0  0  0  0
  -10.2289  -36.2038   22.4357 C   0  0  0  0  0  0  0  0  0  0  0  0
  -11.4897  -35.8318   21.9952 C   0  0  0  0  0  0  0  0  0  0  0  0
  -12.2317  -34.8822   22.6988 C   0  0  0  0  0  0  0  0  0  0  0  0
  -11.6644  -34.2944   23.8446 C   0  0  0  0  0  0  0  0  0  0  0  0
  -12.3747  -33.1587   24.9180 S   0  0  0  0  0  0  0  0  0  0  0  0
   -9.3955  -33.6198   27.6242 H   0  0  0  0  0  0  0  0  0  0  0  0
   -9.1571  -31.8034   28.1786 H   0  0  0  0  0  0  0  0  0  0  0  0
   -9.9172  -32.6004   29.1041 H   0  0  0  0  0  0  0  0  0  0  0  0
  -11.4653  -27.8489   27.4577 H   0  0  0  0  0  0  0  0  0  0  0  0
  -10.2389  -27.8911   28.3823 H   0  0  0  0  0  0  0  0  0  0  0  0
  -12.5238  -28.4818   31.7274 H   0  0  0  0  0  0  0  0  0  0  0  0
  -12.2056  -29.6623   31.1514 H   0  0  0  0  0  0  0  0  0  0  0  0
  -11.7771  -27.0402   33.0586 H   0  0  0  0  0  0  0  0  0  0  0  0
  -10.0425  -24.6687   32.7426 H   0  0  0  0  0  0  0  0  0  0  0  0
   -7.4994  -26.4306   30.2099 H   0  0  0  0  0  0  0  0  0  0  0  0
   -8.9592  -28.4373   29.7915 H   0  0  0  0  0  0  0  0  0  0  0  0
   -9.6579  -36.9487   21.8874 H   0  0  0  0  0  0  0  0  0  0  0  0
  -11.9082  -36.2879   21.1001 H   0  0  0  0  0  0  0  0  0  0  0  0
  -13.2271  -34.6020   22.3638 H   0  0  0  0  0  0  0  0  0  0  0  0
  1  2  1  0
  2  3  1  0
  3  4  2  0
  3  5  1  0
  5  6  1  0
  6  7  1  0
  7  8  1  0
  8  9  2  0
  9 10  1  0
 10 11  2  0
 11 12  1  0
 12 13  2  0
  2 14  1  0
 14 15  2  0
 15 16  1  0
 16 17  2  0
 17 18  1  0
 17 19  1  0
 19 20  2  0
 20 21  1  0
 21 22  2  0
 22 23  1  0
 13  8  1  0
 23 14  1  0
 22 16  1  0
  1 24  1  0
  1 25  1  0
  1 26  1  0
  5 27  1  0
  5 28  1  0
  7 29  1  0
  7 30  1  0
  9 31  1  0
 10 32  1  0
 12 33  1  0
 13 34  1  0
 19 35  1  0
 20 36  1  0
 21 37  1  0
M  END
>  <Energy>  (1420) 
586.45643361577243

>  <compound_id>  (1420) 
6770

>  <target_id>  (1420) 
1

>  <reference_id>  (1420) 
68

>  <inspiration_ids>  (1420) 
[68, 82]

>  <energy_score>  (1420) 
468.23651064113767

>  <distance_score>  (1420) 
4.0772462541428895

>  <path>  (1420) 
/opt/xchem-fragalysis-2/maxwin/BulkDock/SCRATCH/511018/C6770-P68/C6770-P68.minimised.mol

>  <scratch_subdir>  (1420) 
/opt/xchem-fragalysis-2/maxwin/BulkDock/SCRATCH/511018/C6770-P68

>  <fragmenstein_runtime>  (1420) 
9.735318899154663

>  <fragmenstein_outcome>  (1420) 
too moved

>  <fragmenstein_mode>  (1420) 
expansion

>  <fragmenstein_error>  (1420) 


$$$$
C6770-P82
     RDKit          3D

 37 39  0  0  0  0  0  0  0  0999 V2000
  -12.1865  -35.6463   25.7122 C   0  0  0  0  0  0  0  0  0  0  0  0
  -12.3757  -34.5016   24.6475 N   0  0  0  0  0  0  0  0  0  0  0  0
  -12.4603  -33.2320   25.2948 C   0  0  0  0  0  0  0  0  0  0  0  0
  -11.6006  -32.4384   25.5760 O   0  0  0  0  0  0  0  0  0  0  0  0
  -13.9174  -32.9148   25.6892 C   0  0  0  0  0  0  0  0  0  0  0  0
  -14.2058  -31.5340   25.8913 O   0  0  0  0  0  0  0  0  0  0  0  0
  -13.6324  -30.9578   27.0736 C   0  0  0  0  0  0  0  0  0  0  0  0
  -14.0927  -29.5336   27.1180 C   0  0  0  0  0  0  0  0  0  0  0  0
  -13.2137  -28.4753   26.8697 C   0  0  0  0  0  0  0  0  0  0  0  0
  -13.7320  -27.1982   26.8393 C   0  0  0  0  0  0  0  0  0  0  0  0
  -15.0442  -26.9267   27.0644 N   0  0  0  0  0  0  0  0  0  0  0  0
  -15.8846  -27.9752   27.2287 C   0  0  0  0  0  0  0  0  0  0  0  0
  -15.4522  -29.2748   27.3032 C   0  0  0  0  0  0  0  0  0  0  0  0
  -11.2501  -35.1759   24.0358 C   0  0  0  0  0  0  0  0  0  0  0  0
  -11.0686  -36.4400   23.7110 N   0  0  0  0  0  0  0  0  0  0  0  0
   -9.8118  -36.6161   23.1345 C   0  0  0  0  0  0  0  0  0  0  0  0
   -9.1837  -37.8220   22.7668 C   0  0  0  0  0  0  0  0  0  0  0  0
  -10.0532  -39.2619   23.0757 Cl  0  0  0  0  0  0  0  0  0  0  0  0
   -7.9145  -37.8398   22.1938 C   0  0  0  0  0  0  0  0  0  0  0  0
   -7.2453  -36.6422   21.9704 C   0  0  0  0  0  0  0  0  0  0  0  0
   -7.8256  -35.4217   22.3206 C   0  0  0  0  0  0  0  0  0  0  0  0
   -9.1040  -35.4354   22.9012 C   0  0  0  0  0  0  0  0  0  0  0  0
  -10.0450  -34.1067   23.4214 S   0  0  0  0  0  0  0  0  0  0  0  0
  -12.8778  -35.3931   26.5286 H   0  0  0  0  0  0  0  0  0  0  0  0
  -11.1978  -35.6598   26.2018 H   0  0  0  0  0  0  0  0  0  0  0  0
  -12.5645  -36.6190   25.3629 H   0  0  0  0  0  0  0  0  0  0  0  0
  -14.1795  -33.4760   26.5922 H   0  0  0  0  0  0  0  0  0  0  0  0
  -14.5709  -33.2557   24.8789 H   0  0  0  0  0  0  0  0  0  0  0  0
  -13.9865  -31.4963   27.9604 H   0  0  0  0  0  0  0  0  0  0  0  0
  -12.5419  -30.9941   27.0593 H   0  0  0  0  0  0  0  0  0  0  0  0
  -12.1608  -28.6438   26.6666 H   0  0  0  0  0  0  0  0  0  0  0  0
  -13.1005  -26.3349   26.6453 H   0  0  0  0  0  0  0  0  0  0  0  0
  -16.9380  -27.7275   27.3302 H   0  0  0  0  0  0  0  0  0  0  0  0
  -16.1638  -30.0814   27.4466 H   0  0  0  0  0  0  0  0  0  0  0  0
   -7.4490  -38.7818   21.9169 H   0  0  0  0  0  0  0  0  0  0  0  0
   -6.2547  -36.6480   21.5180 H   0  0  0  0  0  0  0  0  0  0  0  0
   -7.2961  -34.4841   22.1549 H   0  0  0  0  0  0  0  0  0  0  0  0
  1  2  1  0
  2  3  1  0
  3  4  2  0
  3  5  1  0
  5  6  1  0
  6  7  1  0
  7  8  1  0
  8  9  2  0
  9 10  1  0
 10 11  2  0
 11 12  1  0
 12 13  2  0
  2 14  1  0
 14 15  2  0
 15 16  1  0
 16 17  2  0
 17 18  1  0
 17 19  1  0
 19 20  2  0
 20 21  1  0
 21 22  2  0
 22 23  1  0
 13  8  1  0
 23 14  1  0
 22 16  1  0
  1 24  1  0
  1 25  1  0
  1 26  1  0
  5 27  1  0
  5 28  1  0
  7 29  1  0
  7 30  1  0
  9 31  1  0
 10 32  1  0
 12 33  1  0
 13 34  1  0
 19 35  1  0
 20 36  1  0
 21 37  1  0
M  END
>  <Energy>  (1421) 
133.92095139324408

>  <compound_id>  (1421) 
6770

>  <target_id>  (1421) 
1

>  <reference_id>  (1421) 
82

>  <inspiration_ids>  (1421) 
[68, 82]

>  <energy_score>  (1421) 
15.701028418615635

>  <distance_score>  (1421) 
5.647670928008887

>  <path>  (1421) 
/opt/xchem-fragalysis-2/maxwin/BulkDock/SCRATCH/511018/C6770-P82/C6770-P82.minimised.mol

>  <scratch_subdir>  (1421) 
/opt/xchem-fragalysis-2/maxwin/BulkDock/SCRATCH/511018/C6770-P82

>  <fragmenstein_runtime>  (1421) 
6.49688458442688

>  <fragmenstein_outcome>  (1421) 
too moved

>  <fragmenstein_mode>  (1421) 
expansion

>  <fragmenstein_error>  (1421) 


$$$$
C6771-P68
     RDKit          3D

 30 32  0  0  0  0  0  0  0  0999 V2000
   -8.6261  -29.1026   26.6022 C   0  0  0  0  0  0  0  0  0  0  0  0
   -9.8350  -28.9499   26.9991 N   0  0  0  0  0  0  0  0  0  0  0  0
  -10.5257  -28.1321   28.5122 C   0  0  0  0  0  0  0  0  0  0  0  0
   -9.6864  -27.6158   29.0839 O   0  0  0  0  0  0  0  0  0  0  0  0
  -12.0939  -28.0839   29.6290 C   0  0  0  0  0  0  0  0  0  0  0  0
  -11.2965  -28.4765   31.1364 C   0  0  0  0  0  0  0  0  0  0  0  0
  -11.3267  -29.5542   32.4743 C   0  0  0  0  0  0  0  0  0  0  0  0
  -12.3311  -30.1640   33.0191 N   0  0  0  0  0  0  0  0  0  0  0  0
  -13.2307  -29.7645   32.2266 C   0  0  0  0  0  0  0  0  0  0  0  0
  -12.8577  -28.8996   30.8862 C   0  0  0  0  0  0  0  0  0  0  0  0
   -9.5751  -28.2798   25.1167 C   0  0  0  0  0  0  0  0  0  0  0  0
   -8.7334  -29.4009   23.8493 N   0  0  0  0  0  0  0  0  0  0  0  0
   -9.5193  -31.0374   23.3628 C   0  0  0  0  0  0  0  0  0  0  0  0
  -10.0130  -32.4293   23.3911 C   0  0  0  0  0  0  0  0  0  0  0  0
   -9.6485  -33.7143   24.4733 Cl  0  0  0  0  0  0  0  0  0  0  0  0
  -10.8676  -32.8830   22.3579 C   0  0  0  0  0  0  0  0  0  0  0  0
  -11.1697  -32.0891   21.2677 C   0  0  0  0  0  0  0  0  0  0  0  0
  -10.5933  -30.8268   21.1345 C   0  0  0  0  0  0  0  0  0  0  0  0
   -9.8781  -30.3459   22.2644 C   0  0  0  0  0  0  0  0  0  0  0  0
   -8.2060  -29.0143   23.2988 S   0  0  0  0  0  0  0  0  0  0  0  0
   -9.0223  -29.9435   27.1645 H   0  0  0  0  0  0  0  0  0  0  0  0
   -7.5501  -28.9347   26.7684 H   0  0  0  0  0  0  0  0  0  0  0  0
   -8.4097  -28.6628   27.6272 H   0  0  0  0  0  0  0  0  0  0  0  0
  -11.3479  -27.5923   31.8517 H   0  0  0  0  0  0  0  0  0  0  0  0
  -10.4096  -30.0959   32.7334 H   0  0  0  0  0  0  0  0  0  0  0  0
  -14.2698  -29.9790   32.4630 H   0  0  0  0  0  0  0  0  0  0  0  0
  -13.9448  -28.8272   30.8380 H   0  0  0  0  0  0  0  0  0  0  0  0
  -11.2605  -33.8997   22.3765 H   0  0  0  0  0  0  0  0  0  0  0  0
  -11.7756  -32.4902   20.4554 H   0  0  0  0  0  0  0  0  0  0  0  0
  -10.7627  -30.3374   20.1897 H   0  0  0  0  0  0  0  0  0  0  0  0
  1  2  1  0
  2  3  1  0
  3  4  2  0
  3  5  1  0
  5  6  2  0
  6  7  1  0
  7  8  2  0
  8  9  1  0
  9 10  2  0
  2 11  1  0
 11 12  2  0
 12 13  1  0
 13 14  2  0
 14 15  1  0
 14 16  1  0
 16 17  2  0
 17 18  1  0
 18 19  2  0
 19 20  1  0
 10  5  1  0
 20 11  1  0
 19 13  1  0
  1 21  1  0
  1 22  1  0
  1 23  1  0
  6 24  1  0
  7 25  1  0
  9 26  1  0
 10 27  1  0
 16 28  1  0
 17 29  1  0
 18 30  1  0
M  END
>  <Energy>  (1422) 
1505.8658862685104

>  <compound_id>  (1422) 
6771

>  <target_id>  (1422) 
1

>  <reference_id>  (1422) 
68

>  <inspiration_ids>  (1422) 
[68, 82]

>  <energy_score>  (1422) 
1418.767571040264

>  <distance_score>  (1422) 
5.506443829534396

>  <path>  (1422) 
/opt/xchem-fragalysis-2/maxwin/BulkDock/SCRATCH/511018/C6771-P68/C6771-P68.minimised.mol

>  <scratch_subdir>  (1422) 
/opt/xchem-fragalysis-2/maxwin/BulkDock/SCRATCH/511018/C6771-P68

>  <fragmenstein_runtime>  (1422) 
6.726466417312622

>  <fragmenstein_outcome>  (1422) 
too moved

>  <fragmenstein_mode>  (1422) 
expansion

>  <fragmenstein_error>  (1422) 


$$$$
C6771-P82
     RDKit          3D

 30 32  0  0  0  0  0  0  0  0999 V2000
  -14.4349  -34.4673   25.5046 C   0  0  0  0  0  0  0  0  0  0  0  0
  -13.7548  -33.3194   26.2840 N   0  0  0  0  0  0  0  0  0  0  0  0
  -13.7830  -31.7858   26.0498 C   0  0  0  0  0  0  0  0  0  0  0  0
  -14.2685  -31.1535   25.1710 O   0  0  0  0  0  0  0  0  0  0  0  0
  -13.1917  -30.8448   27.1619 C   0  0  0  0  0  0  0  0  0  0  0  0
  -13.5469  -31.0856   28.4910 C   0  0  0  0  0  0  0  0  0  0  0  0
  -13.3286  -30.1351   29.4881 C   0  0  0  0  0  0  0  0  0  0  0  0
  -12.8335  -28.9021   29.2681 N   0  0  0  0  0  0  0  0  0  0  0  0
  -12.5544  -28.6084   27.9831 C   0  0  0  0  0  0  0  0  0  0  0  0
  -12.7398  -29.5181   26.9321 C   0  0  0  0  0  0  0  0  0  0  0  0
  -12.4741  -33.9886   25.6055 C   0  0  0  0  0  0  0  0  0  0  0  0
  -12.0260  -35.2258   25.8409 N   0  0  0  0  0  0  0  0  0  0  0  0
  -10.9173  -35.5668   25.0441 C   0  0  0  0  0  0  0  0  0  0  0  0
  -10.1835  -36.7633   25.0056 C   0  0  0  0  0  0  0  0  0  0  0  0
  -10.6483  -37.9849   26.1042 Cl  0  0  0  0  0  0  0  0  0  0  0  0
   -9.1390  -36.9371   24.1019 C   0  0  0  0  0  0  0  0  0  0  0  0
   -8.8035  -35.9173   23.2171 C   0  0  0  0  0  0  0  0  0  0  0  0
   -9.4858  -34.7061   23.2366 C   0  0  0  0  0  0  0  0  0  0  0  0
  -10.5232  -34.5636   24.1690 C   0  0  0  0  0  0  0  0  0  0  0  0
  -11.4824  -33.2030   24.4888 S   0  0  0  0  0  0  0  0  0  0  0  0
  -14.3125  -35.4491   25.9806 H   0  0  0  0  0  0  0  0  0  0  0  0
  -14.3073  -34.4295   24.4117 H   0  0  0  0  0  0  0  0  0  0  0  0
  -15.5028  -34.2379   25.6323 H   0  0  0  0  0  0  0  0  0  0  0  0
  -14.0458  -32.0127   28.7575 H   0  0  0  0  0  0  0  0  0  0  0  0
  -13.5888  -30.3683   30.5162 H   0  0  0  0  0  0  0  0  0  0  0  0
  -12.1965  -27.5993   27.7927 H   0  0  0  0  0  0  0  0  0  0  0  0
  -12.5920  -29.1648   25.9145 H   0  0  0  0  0  0  0  0  0  0  0  0
   -8.5860  -37.8728   24.0798 H   0  0  0  0  0  0  0  0  0  0  0  0
   -7.9818  -36.0544   22.5151 H   0  0  0  0  0  0  0  0  0  0  0  0
   -9.2001  -33.8917   22.5736 H   0  0  0  0  0  0  0  0  0  0  0  0
  1  2  1  0
  2  3  1  0
  3  4  2  0
  3  5  1  0
  5  6  2  0
  6  7  1  0
  7  8  2  0
  8  9  1  0
  9 10  2  0
  2 11  1  0
 11 12  2  0
 12 13  1  0
 13 14  2  0
 14 15  1  0
 14 16  1  0
 16 17  2  0
 17 18  1  0
 18 19  2  0
 19 20  1  0
 10  5  1  0
 20 11  1  0
 19 13  1  0
  1 21  1  0
  1 22  1  0
  1 23  1  0
  6 24  1  0
  7 25  1  0
  9 26  1  0
 10 27  1  0
 16 28  1  0
 17 29  1  0
 18 30  1  0
M  END
>  <Energy>  (1423) 
127.1659593498169

>  <compound_id>  (1423) 
6771

>  <target_id>  (1423) 
1

>  <reference_id>  (1423) 
82

>  <inspiration_ids>  (1423) 
[68, 82]

>  <energy_score>  (1423) 
38.56588896355072

>  <distance_score>  (1423) 
5.891408848930646

>  <path>  (1423) 
/opt/xchem-fragalysis-2/maxwin/BulkDock/SCRATCH/511018/C6771-P82/C6771-P82.minimised.mol

>  <scratch_subdir>  (1423) 
/opt/xchem-fragalysis-2/maxwin/BulkDock/SCRATCH/511018/C6771-P82

>  <fragmenstein_runtime>  (1423) 
4.429074764251709

>  <fragmenstein_outcome>  (1423) 
too moved

>  <fragmenstein_mode>  (1423) 
expansion

>  <fragmenstein_error>  (1423) 


$$$$
C6772-P68
     RDKit          3D

 43 45  0  0  0  0  0  0  0  0999 V2000
  -12.1583  -35.2184   22.2856 C   0  0  0  0  0  0  0  0  0  0  0  0
  -11.3232  -35.8686   23.2369 O   0  0  0  0  0  0  0  0  0  0  0  0
  -10.9454  -35.1356   24.3354 C   0  0  0  0  0  0  0  0  0  0  0  0
   -9.9735  -35.7769   25.1351 C   0  0  0  0  0  0  0  0  0  0  0  0
   -9.4505  -35.2205   26.3159 C   0  0  0  0  0  0  0  0  0  0  0  0
   -9.9222  -33.9467   26.6402 C   0  0  0  0  0  0  0  0  0  0  0  0
   -9.5465  -32.6254   28.3883 S   0  0  0  0  0  0  0  0  0  0  0  0
  -10.1589  -30.8293   27.4238 C   0  0  0  0  0  0  0  0  0  0  0  0
  -10.0135  -29.2294   27.0549 N   0  0  0  0  0  0  0  0  0  0  0  0
  -10.6735  -28.0208   27.6333 C   0  0  0  0  0  0  0  0  0  0  0  0
  -11.4046  -27.9077   28.5784 O   0  0  0  0  0  0  0  0  0  0  0  0
  -10.4966  -26.5079   26.7381 C   0  0  0  0  0  0  0  0  0  0  0  0
  -10.1481  -24.9450   27.0964 C   0  0  0  0  0  0  0  0  0  0  0  0
   -9.7977  -24.1991   28.1826 C   0  0  0  0  0  0  0  0  0  0  0  0
  -10.4589  -22.9396   28.4952 C   0  0  0  0  0  0  0  0  0  0  0  0
  -11.3894  -22.3204   27.8066 N   0  0  0  0  0  0  0  0  0  0  0  0
  -11.6014  -22.9534   26.6946 C   0  0  0  0  0  0  0  0  0  0  0  0
  -10.8049  -24.0732   26.3124 C   0  0  0  0  0  0  0  0  0  0  0  0
  -12.0089  -26.2906   25.9590 C   0  0  0  0  0  0  0  0  0  0  0  0
  -12.9406  -27.3524   25.6493 C   0  0  0  0  0  0  0  0  0  0  0  0
  -13.1080  -25.2078   26.0637 C   0  0  0  0  0  0  0  0  0  0  0  0
  -11.2733  -31.6798   26.4990 N   0  0  0  0  0  0  0  0  0  0  0  0
  -10.9375  -33.2521   25.8080 C   0  0  0  0  0  0  0  0  0  0  0  0
  -11.4701  -33.8797   24.6766 C   0  0  0  0  0  0  0  0  0  0  0  0
  -13.1475  -35.0144   22.7079 H   0  0  0  0  0  0  0  0  0  0  0  0
  -12.2916  -35.8981   21.4385 H   0  0  0  0  0  0  0  0  0  0  0  0
  -11.6919  -34.3022   21.9077 H   0  0  0  0  0  0  0  0  0  0  0  0
   -9.6291  -36.7688   24.8391 H   0  0  0  0  0  0  0  0  0  0  0  0
   -8.7940  -35.7770   26.9630 H   0  0  0  0  0  0  0  0  0  0  0  0
   -9.5387  -28.9750   26.2191 H   0  0  0  0  0  0  0  0  0  0  0  0
   -9.9277  -26.7975   25.8628 H   0  0  0  0  0  0  0  0  0  0  0  0
   -9.2348  -24.6587   28.9531 H   0  0  0  0  0  0  0  0  0  0  0  0
  -10.4417  -22.4362   29.4444 H   0  0  0  0  0  0  0  0  0  0  0  0
  -12.2422  -22.4287   25.9887 H   0  0  0  0  0  0  0  0  0  0  0  0
  -10.5066  -24.1988   25.3077 H   0  0  0  0  0  0  0  0  0  0  0  0
  -11.5027  -26.2195   25.0395 H   0  0  0  0  0  0  0  0  0  0  0  0
  -13.8171  -27.3581   26.3048 H   0  0  0  0  0  0  0  0  0  0  0  0
  -12.3177  -28.2094   25.5938 H   0  0  0  0  0  0  0  0  0  0  0  0
  -13.4888  -27.2309   24.7244 H   0  0  0  0  0  0  0  0  0  0  0  0
  -14.0990  -25.5199   25.6987 H   0  0  0  0  0  0  0  0  0  0  0  0
  -13.0553  -24.2990   25.4754 H   0  0  0  0  0  0  0  0  0  0  0  0
  -13.1991  -24.9594   27.0950 H   0  0  0  0  0  0  0  0  0  0  0  0
  -12.2237  -33.3682   24.0962 H   0  0  0  0  0  0  0  0  0  0  0  0
  1  2  1  0
  2  3  1  0
  3  4  2  0
  4  5  1  0
  5  6  2  0
  6  7  1  0
  7  8  1  0
  8  9  1  0
  9 10  1  0
 10 11  2  0
 10 12  1  0
 12 13  1  0
 13 14  2  0
 14 15  1  0
 15 16  2  0
 16 17  1  0
 17 18  2  0
 12 19  1  0
 19 20  1  0
 19 21  1  0
  8 22  2  0
 22 23  1  0
 23 24  2  0
 24  3  1  0
 23  6  1  0
 18 13  1  0
  1 25  1  0
  1 26  1  0
  1 27  1  0
  4 28  1  0
  5 29  1  0
  9 30  1  0
 12 31  1  0
 14 32  1  0
 15 33  1  0
 17 34  1  0
 18 35  1  0
 19 36  1  0
 20 37  1  0
 20 38  1  0
 20 39  1  0
 21 40  1  0
 21 41  1  0
 21 42  1  0
 24 43  1  0
M  END
>  <Energy>  (1424) 
481.33669437995434

>  <compound_id>  (1424) 
6772

>  <target_id>  (1424) 
1

>  <reference_id>  (1424) 
68

>  <inspiration_ids>  (1424) 
[68, 82]

>  <energy_score>  (1424) 
348.70087537453776

>  <distance_score>  (1424) 
5.25132036940202

>  <path>  (1424) 
/opt/xchem-fragalysis-2/maxwin/BulkDock/SCRATCH/511018/C6772-P68/C6772-P68.minimised.mol

>  <scratch_subdir>  (1424) 
/opt/xchem-fragalysis-2/maxwin/BulkDock/SCRATCH/511018/C6772-P68

>  <fragmenstein_runtime>  (1424) 
14.908838033676147

>  <fragmenstein_outcome>  (1424) 
too moved

>  <fragmenstein_mode>  (1424) 
expansion

>  <fragmenstein_error>  (1424) 


$$$$
C6772-P82
     RDKit          3D

 43 45  0  0  0  0  0  0  0  0999 V2000
  -16.1323  -37.1497   23.2281 C   0  0  0  0  0  0  0  0  0  0  0  0
  -14.7125  -37.0712   23.2527 O   0  0  0  0  0  0  0  0  0  0  0  0
  -14.1604  -35.9488   23.8104 C   0  0  0  0  0  0  0  0  0  0  0  0
  -12.7670  -35.9568   23.8596 C   0  0  0  0  0  0  0  0  0  0  0  0
  -12.0565  -34.8893   24.4078 C   0  0  0  0  0  0  0  0  0  0  0  0
  -12.7948  -33.8032   24.8966 C   0  0  0  0  0  0  0  0  0  0  0  0
  -12.2422  -32.3755   25.6363 S   0  0  0  0  0  0  0  0  0  0  0  0
  -13.8086  -31.7379   25.7201 C   0  0  0  0  0  0  0  0  0  0  0  0
  -13.9708  -30.4136   26.0434 N   0  0  0  0  0  0  0  0  0  0  0  0
  -12.9957  -29.3938   26.4095 C   0  0  0  0  0  0  0  0  0  0  0  0
  -11.8155  -29.4749   26.5979 O   0  0  0  0  0  0  0  0  0  0  0  0
  -13.6548  -27.9420   26.4491 C   0  0  0  0  0  0  0  0  0  0  0  0
  -12.7906  -26.8595   27.1713 C   0  0  0  0  0  0  0  0  0  0  0  0
  -12.7675  -25.5009   26.8386 C   0  0  0  0  0  0  0  0  0  0  0  0
  -11.9735  -24.6053   27.5625 C   0  0  0  0  0  0  0  0  0  0  0  0
  -11.2033  -24.9439   28.6116 N   0  0  0  0  0  0  0  0  0  0  0  0
  -11.2625  -26.2324   28.9755 C   0  0  0  0  0  0  0  0  0  0  0  0
  -12.0269  -27.1875   28.3024 C   0  0  0  0  0  0  0  0  0  0  0  0
  -14.1636  -27.6065   25.0018 C   0  0  0  0  0  0  0  0  0  0  0  0
  -13.0815  -27.1038   24.0441 C   0  0  0  0  0  0  0  0  0  0  0  0
  -15.3998  -26.7036   24.9768 C   0  0  0  0  0  0  0  0  0  0  0  0
  -14.7560  -32.5539   25.3265 N   0  0  0  0  0  0  0  0  0  0  0  0
  -14.1845  -33.7440   24.8445 C   0  0  0  0  0  0  0  0  0  0  0  0
  -14.8751  -34.8472   24.2997 C   0  0  0  0  0  0  0  0  0  0  0  0
  -16.5590  -36.3601   22.6010 H   0  0  0  0  0  0  0  0  0  0  0  0
  -16.5478  -37.1193   24.2408 H   0  0  0  0  0  0  0  0  0  0  0  0
  -16.4063  -38.1117   22.7844 H   0  0  0  0  0  0  0  0  0  0  0  0
  -12.2212  -36.8150   23.4713 H   0  0  0  0  0  0  0  0  0  0  0  0
  -10.9715  -34.9029   24.4541 H   0  0  0  0  0  0  0  0  0  0  0  0
  -14.8940  -30.0057   26.0494 H   0  0  0  0  0  0  0  0  0  0  0  0
  -14.5397  -28.0615   27.0905 H   0  0  0  0  0  0  0  0  0  0  0  0
  -13.3434  -25.0802   26.0264 H   0  0  0  0  0  0  0  0  0  0  0  0
  -11.9534  -23.5506   27.2990 H   0  0  0  0  0  0  0  0  0  0  0  0
  -10.6645  -26.5017   29.8422 H   0  0  0  0  0  0  0  0  0  0  0  0
  -12.0173  -28.1999   28.6808 H   0  0  0  0  0  0  0  0  0  0  0  0
  -14.5192  -28.5399   24.5520 H   0  0  0  0  0  0  0  0  0  0  0  0
  -12.1781  -27.7144   24.1161 H   0  0  0  0  0  0  0  0  0  0  0  0
  -12.8016  -26.0631   24.2144 H   0  0  0  0  0  0  0  0  0  0  0  0
  -13.4433  -27.1544   23.0121 H   0  0  0  0  0  0  0  0  0  0  0  0
  -15.8369  -26.6930   23.9717 H   0  0  0  0  0  0  0  0  0  0  0  0
  -15.1784  -25.6682   25.2355 H   0  0  0  0  0  0  0  0  0  0  0  0
  -16.1682  -27.0743   25.6631 H   0  0  0  0  0  0  0  0  0  0  0  0
  -15.9560  -34.7962   24.2661 H   0  0  0  0  0  0  0  0  0  0  0  0
  1  2  1  0
  2  3  1  0
  3  4  2  0
  4  5  1  0
  5  6  2  0
  6  7  1  0
  7  8  1  0
  8  9  1  0
  9 10  1  0
 10 11  2  0
 10 12  1  0
 12 13  1  0
 13 14  2  0
 14 15  1  0
 15 16  2  0
 16 17  1  0
 17 18  2  0
 12 19  1  0
 19 20  1  0
 19 21  1  0
  8 22  2  0
 22 23  1  0
 23 24  2  0
 24  3  1  0
 23  6  1  0
 18 13  1  0
  1 25  1  0
  1 26  1  0
  1 27  1  0
  4 28  1  0
  5 29  1  0
  9 30  1  0
 12 31  1  0
 14 32  1  0
 15 33  1  0
 17 34  1  0
 18 35  1  0
 19 36  1  0
 20 37  1  0
 20 38  1  0
 20 39  1  0
 21 40  1  0
 21 41  1  0
 21 42  1  0
 24 43  1  0
M  END
>  <Energy>  (1425) 
42.153936441078329

>  <compound_id>  (1425) 
6772

>  <target_id>  (1425) 
1

>  <reference_id>  (1425) 
82

>  <inspiration_ids>  (1425) 
[68, 82]

>  <energy_score>  (1425) 
-90.48188256433696

>  <distance_score>  (1425) 
5.603133917462872

>  <path>  (1425) 
/opt/xchem-fragalysis-2/maxwin/BulkDock/SCRATCH/511018/C6772-P82/C6772-P82.minimised.mol

>  <scratch_subdir>  (1425) 
/opt/xchem-fragalysis-2/maxwin/BulkDock/SCRATCH/511018/C6772-P82

>  <fragmenstein_runtime>  (1425) 
14.549532890319824

>  <fragmenstein_outcome>  (1425) 
too moved

>  <fragmenstein_mode>  (1425) 
expansion

>  <fragmenstein_error>  (1425) 


$$$$
C6773-P68
     RDKit          3D

 43 45  0  0  0  0  0  0  0  0999 V2000
  -13.7278  -33.3540   24.6634 C   0  0  0  0  0  0  0  0  0  0  0  0
  -12.5230  -33.4896   23.9086 O   0  0  0  0  0  0  0  0  0  0  0  0
  -11.5086  -33.9443   24.7220 C   0  0  0  0  0  0  0  0  0  0  0  0
  -10.9266  -35.1852   24.4163 C   0  0  0  0  0  0  0  0  0  0  0  0
   -9.9237  -35.7638   25.2190 C   0  0  0  0  0  0  0  0  0  0  0  0
   -9.4351  -35.1504   26.3855 C   0  0  0  0  0  0  0  0  0  0  0  0
   -9.9480  -33.8798   26.6662 C   0  0  0  0  0  0  0  0  0  0  0  0
   -9.5979  -32.4300   28.3602 S   0  0  0  0  0  0  0  0  0  0  0  0
  -10.2554  -30.6324   27.1863 C   0  0  0  0  0  0  0  0  0  0  0  0
  -10.3860  -28.8589   27.2788 N   0  0  0  0  0  0  0  0  0  0  0  0
  -11.2690  -27.6915   26.2550 C   0  0  0  0  0  0  0  0  0  0  0  0
  -11.9724  -28.0648   25.3906 O   0  0  0  0  0  0  0  0  0  0  0  0
  -11.3759  -26.0002   26.3527 C   0  0  0  0  0  0  0  0  0  0  0  0
  -10.8889  -24.5043   26.6868 C   0  0  0  0  0  0  0  0  0  0  0  0
  -11.6804  -23.4304   26.2234 C   0  0  0  0  0  0  0  0  0  0  0  0
  -11.8593  -22.2135   26.8592 C   0  0  0  0  0  0  0  0  0  0  0  0
  -11.3427  -21.9349   28.0124 N   0  0  0  0  0  0  0  0  0  0  0  0
  -10.5164  -22.8856   28.3993 C   0  0  0  0  0  0  0  0  0  0  0  0
  -10.1170  -24.0841   27.7487 C   0  0  0  0  0  0  0  0  0  0  0  0
  -13.1338  -25.8031   25.7639 C   0  0  0  0  0  0  0  0  0  0  0  0
  -14.1935  -26.7090   26.2866 C   0  0  0  0  0  0  0  0  0  0  0  0
  -13.9745  -24.6598   25.0497 C   0  0  0  0  0  0  0  0  0  0  0  0
  -11.3493  -31.6227   26.4274 N   0  0  0  0  0  0  0  0  0  0  0  0
  -10.9733  -33.2096   25.7900 C   0  0  0  0  0  0  0  0  0  0  0  0
  -14.0127  -34.3089   25.1197 H   0  0  0  0  0  0  0  0  0  0  0  0
  -13.6457  -32.5788   25.4313 H   0  0  0  0  0  0  0  0  0  0  0  0
  -14.5233  -33.0601   23.9720 H   0  0  0  0  0  0  0  0  0  0  0  0
  -11.2851  -35.7303   23.5444 H   0  0  0  0  0  0  0  0  0  0  0  0
   -9.5385  -36.7470   24.9473 H   0  0  0  0  0  0  0  0  0  0  0  0
   -8.7641  -35.6567   27.0562 H   0  0  0  0  0  0  0  0  0  0  0  0
   -9.7798  -28.3498   27.8985 H   0  0  0  0  0  0  0  0  0  0  0  0
  -10.8282  -25.9674   25.4232 H   0  0  0  0  0  0  0  0  0  0  0  0
  -12.2309  -23.3497   25.3144 H   0  0  0  0  0  0  0  0  0  0  0  0
  -12.3982  -21.4365   26.3612 H   0  0  0  0  0  0  0  0  0  0  0  0
  -10.3654  -22.6525   29.4209 H   0  0  0  0  0  0  0  0  0  0  0  0
   -9.5298  -24.7741   28.3142 H   0  0  0  0  0  0  0  0  0  0  0  0
  -13.0028  -26.4616   24.9674 H   0  0  0  0  0  0  0  0  0  0  0  0
  -15.2177  -26.3552   26.1583 H   0  0  0  0  0  0  0  0  0  0  0  0
  -13.8992  -26.8175   27.2908 H   0  0  0  0  0  0  0  0  0  0  0  0
  -14.2858  -27.6646   25.7970 H   0  0  0  0  0  0  0  0  0  0  0  0
  -13.6591  -24.3229   24.0700 H   0  0  0  0  0  0  0  0  0  0  0  0
  -14.9923  -24.9980   24.8094 H   0  0  0  0  0  0  0  0  0  0  0  0
  -14.1094  -23.7596   25.6286 H   0  0  0  0  0  0  0  0  0  0  0  0
  1  2  1  0
  2  3  1  0
  3  4  2  0
  4  5  1  0
  5  6  2  0
  6  7  1  0
  7  8  1  0
  8  9  1  0
  9 10  1  0
 10 11  1  0
 11 12  2  0
 11 13  1  0
 13 14  1  0
 14 15  2  0
 15 16  1  0
 16 17  2  0
 17 18  1  0
 18 19  2  0
 13 20  1  0
 20 21  1  0
 20 22  1  0
  9 23  2  0
 23 24  1  0
 24  3  1  0
 24  7  2  0
 19 14  1  0
  1 25  1  0
  1 26  1  0
  1 27  1  0
  4 28  1  0
  5 29  1  0
  6 30  1  0
 10 31  1  0
 13 32  1  0
 15 33  1  0
 16 34  1  0
 18 35  1  0
 19 36  1  0
 20 37  1  0
 21 38  1  0
 21 39  1  0
 21 40  1  0
 22 41  1  0
 22 42  1  0
 22 43  1  0
M  END
>  <Energy>  (1426) 
575.21066483205993

>  <compound_id>  (1426) 
6773

>  <target_id>  (1426) 
1

>  <reference_id>  (1426) 
68

>  <inspiration_ids>  (1426) 
[68, 82]

>  <energy_score>  (1426) 
429.2181487210935

>  <distance_score>  (1426) 
5.366792736934889

>  <path>  (1426) 
/opt/xchem-fragalysis-2/maxwin/BulkDock/SCRATCH/511018/C6773-P68/C6773-P68.minimised.mol

>  <scratch_subdir>  (1426) 
/opt/xchem-fragalysis-2/maxwin/BulkDock/SCRATCH/511018/C6773-P68

>  <fragmenstein_runtime>  (1426) 
14.830266952514648

>  <fragmenstein_outcome>  (1426) 
too moved

>  <fragmenstein_mode>  (1426) 
expansion

>  <fragmenstein_error>  (1426) 


$$$$
C6773-P82
     RDKit          3D

 43 45  0  0  0  0  0  0  0  0999 V2000
   -8.6974  -33.0002   22.3585 C   0  0  0  0  0  0  0  0  0  0  0  0
   -8.8558  -33.4949   23.6900 O   0  0  0  0  0  0  0  0  0  0  0  0
  -10.0940  -34.0319   23.9223 C   0  0  0  0  0  0  0  0  0  0  0  0
  -10.4640  -35.2072   23.2717 C   0  0  0  0  0  0  0  0  0  0  0  0
  -11.7574  -35.6824   23.3969 C   0  0  0  0  0  0  0  0  0  0  0  0
  -12.6989  -34.9918   24.1653 C   0  0  0  0  0  0  0  0  0  0  0  0
  -12.3005  -33.8341   24.8566 C   0  0  0  0  0  0  0  0  0  0  0  0
  -13.2429  -32.7007   25.8045 S   0  0  0  0  0  0  0  0  0  0  0  0
  -11.8530  -31.7604   26.2137 C   0  0  0  0  0  0  0  0  0  0  0  0
  -11.9249  -30.3946   26.6065 N   0  0  0  0  0  0  0  0  0  0  0  0
  -12.9644  -29.6495   27.5140 C   0  0  0  0  0  0  0  0  0  0  0  0
  -13.8699  -30.0679   28.1348 O   0  0  0  0  0  0  0  0  0  0  0  0
  -12.7228  -28.0242   27.4288 C   0  0  0  0  0  0  0  0  0  0  0  0
  -11.9335  -27.0266   28.3746 C   0  0  0  0  0  0  0  0  0  0  0  0
  -11.4924  -27.3075   29.6676 C   0  0  0  0  0  0  0  0  0  0  0  0
  -10.8103  -26.3826   30.4830 C   0  0  0  0  0  0  0  0  0  0  0  0
  -10.6043  -25.1144   30.1327 N   0  0  0  0  0  0  0  0  0  0  0  0
  -11.1272  -24.7802   28.9417 C   0  0  0  0  0  0  0  0  0  0  0  0
  -11.7631  -25.6689   28.0604 C   0  0  0  0  0  0  0  0  0  0  0  0
  -12.8447  -27.6784   25.8997 C   0  0  0  0  0  0  0  0  0  0  0  0
  -11.5393  -27.2853   25.2482 C   0  0  0  0  0  0  0  0  0  0  0  0
  -13.9617  -26.6777   25.5624 C   0  0  0  0  0  0  0  0  0  0  0  0
  -10.7857  -32.2206   25.5760 N   0  0  0  0  0  0  0  0  0  0  0  0
  -10.9986  -33.3756   24.7952 C   0  0  0  0  0  0  0  0  0  0  0  0
   -7.8802  -32.2731   22.3656 H   0  0  0  0  0  0  0  0  0  0  0  0
   -8.4225  -33.8181   21.6853 H   0  0  0  0  0  0  0  0  0  0  0  0
   -9.6003  -32.4994   21.9925 H   0  0  0  0  0  0  0  0  0  0  0  0
   -9.7476  -35.7298   22.6436 H   0  0  0  0  0  0  0  0  0  0  0  0
  -12.0524  -36.5889   22.8725 H   0  0  0  0  0  0  0  0  0  0  0  0
  -13.7238  -35.3470   24.2280 H   0  0  0  0  0  0  0  0  0  0  0  0
  -11.2227  -29.7373   26.2847 H   0  0  0  0  0  0  0  0  0  0  0  0
  -13.7347  -27.7543   27.7417 H   0  0  0  0  0  0  0  0  0  0  0  0
  -11.7173  -28.2646   30.1019 H   0  0  0  0  0  0  0  0  0  0  0  0
  -10.4368  -26.6659   31.4633 H   0  0  0  0  0  0  0  0  0  0  0  0
  -11.0331  -23.7309   28.6729 H   0  0  0  0  0  0  0  0  0  0  0  0
  -12.1311  -25.2346   27.1405 H   0  0  0  0  0  0  0  0  0  0  0  0
  -13.1740  -28.5874   25.3793 H   0  0  0  0  0  0  0  0  0  0  0  0
  -11.6234  -27.4897   24.1775 H   0  0  0  0  0  0  0  0  0  0  0  0
  -10.6855  -27.8510   25.6260 H   0  0  0  0  0  0  0  0  0  0  0  0
  -11.3295  -26.2217   25.3733 H   0  0  0  0  0  0  0  0  0  0  0  0
  -14.0465  -26.5550   24.4766 H   0  0  0  0  0  0  0  0  0  0  0  0
  -14.9289  -27.0431   25.9242 H   0  0  0  0  0  0  0  0  0  0  0  0
  -13.7963  -25.6883   25.9901 H   0  0  0  0  0  0  0  0  0  0  0  0
  1  2  1  0
  2  3  1  0
  3  4  2  0
  4  5  1  0
  5  6  2  0
  6  7  1  0
  7  8  1  0
  8  9  1  0
  9 10  1  0
 10 11  1  0
 11 12  2  0
 11 13  1  0
 13 14  1  0
 14 15  2  0
 15 16  1  0
 16 17  2  0
 17 18  1  0
 18 19  2  0
 13 20  1  0
 20 21  1  0
 20 22  1  0
  9 23  2  0
 23 24  1  0
 24  3  1  0
 24  7  2  0
 19 14  1  0
  1 25  1  0
  1 26  1  0
  1 27  1  0
  4 28  1  0
  5 29  1  0
  6 30  1  0
 10 31  1  0
 13 32  1  0
 15 33  1  0
 16 34  1  0
 18 35  1  0
 19 36  1  0
 20 37  1  0
 21 38  1  0
 21 39  1  0
 21 40  1  0
 22 41  1  0
 22 42  1  0
 22 43  1  0
M  END
>  <Energy>  (1427) 
109.56803713949003

>  <compound_id>  (1427) 
6773

>  <target_id>  (1427) 
1

>  <reference_id>  (1427) 
82

>  <inspiration_ids>  (1427) 
[68, 82]

>  <energy_score>  (1427) 
-31.446713566414758

>  <distance_score>  (1427) 
4.480870455588445

>  <path>  (1427) 
/opt/xchem-fragalysis-2/maxwin/BulkDock/SCRATCH/511018/C6773-P82/C6773-P82.minimised.mol

>  <scratch_subdir>  (1427) 
/opt/xchem-fragalysis-2/maxwin/BulkDock/SCRATCH/511018/C6773-P82

>  <fragmenstein_runtime>  (1427) 
5.1603076457977295

>  <fragmenstein_outcome>  (1427) 
too moved

>  <fragmenstein_mode>  (1427) 
expansion

>  <fragmenstein_error>  (1427) 


$$$$
C6774-P68
     RDKit          3D

 41 43  0  0  0  0  0  0  0  0999 V2000
   -6.3798  -34.3462   30.0878 C   0  0  0  0  0  0  0  0  0  0  0  0
   -7.8439  -34.4152   29.5282 C   0  0  0  0  0  0  0  0  0  0  0  0
   -8.4217  -34.7087   28.0896 N   0  0  0  0  0  0  0  0  0  0  0  0
   -8.9320  -33.5589   27.4088 C   0  0  0  0  0  0  0  0  0  0  0  0
   -9.3126  -31.7940   28.1486 C   0  0  0  0  0  0  0  0  0  0  0  0
   -9.3530  -29.9592   28.4106 N   0  0  0  0  0  0  0  0  0  0  0  0
   -9.7925  -28.9413   27.6526 C   0  0  0  0  0  0  0  0  0  0  0  0
  -10.1797  -28.9063   26.5755 O   0  0  0  0  0  0  0  0  0  0  0  0
   -9.8415  -27.7971   28.5005 C   0  0  0  0  0  0  0  0  0  0  0  0
   -9.4290  -27.8455   29.9099 C   0  0  0  0  0  0  0  0  0  0  0  0
  -10.4065  -28.2172   31.1760 C   0  0  0  0  0  0  0  0  0  0  0  0
  -11.6410  -28.5616   31.2451 N   0  0  0  0  0  0  0  0  0  0  0  0
  -12.0182  -28.2898   30.0015 C   0  0  0  0  0  0  0  0  0  0  0  0
  -11.2145  -27.9705   28.6059 C   0  0  0  0  0  0  0  0  0  0  0  0
   -8.8483  -35.7819   27.1341 C   0  0  0  0  0  0  0  0  0  0  0  0
   -9.3908  -36.9626   27.2911 N   0  0  0  0  0  0  0  0  0  0  0  0
   -9.7957  -37.6232   26.1345 C   0  0  0  0  0  0  0  0  0  0  0  0
  -10.3889  -38.9000   26.0925 C   0  0  0  0  0  0  0  0  0  0  0  0
  -10.8084  -39.4362   24.8702 C   0  0  0  0  0  0  0  0  0  0  0  0
  -10.6363  -38.7240   23.6890 C   0  0  0  0  0  0  0  0  0  0  0  0
  -10.0367  -37.4663   23.7040 C   0  0  0  0  0  0  0  0  0  0  0  0
   -9.6314  -36.9426   24.9435 C   0  0  0  0  0  0  0  0  0  0  0  0
   -8.9122  -35.4438   25.2498 S   0  0  0  0  0  0  0  0  0  0  0  0
   -6.3801  -33.7935   31.0270 H   0  0  0  0  0  0  0  0  0  0  0  0
   -6.0298  -35.2770   30.5093 H   0  0  0  0  0  0  0  0  0  0  0  0
   -5.5836  -33.9496   29.4639 H   0  0  0  0  0  0  0  0  0  0  0  0
   -8.2408  -35.0213   30.2841 H   0  0  0  0  0  0  0  0  0  0  0  0
   -8.2750  -33.5086   29.8683 H   0  0  0  0  0  0  0  0  0  0  0  0
   -8.1416  -33.4333   26.6438 H   0  0  0  0  0  0  0  0  0  0  0  0
   -9.8769  -33.8673   26.9482 H   0  0  0  0  0  0  0  0  0  0  0  0
  -10.2910  -31.6600   27.8291 H   0  0  0  0  0  0  0  0  0  0  0  0
   -9.4684  -32.2718   29.1320 H   0  0  0  0  0  0  0  0  0  0  0  0
   -8.9998  -29.5907   29.2959 H   0  0  0  0  0  0  0  0  0  0  0  0
   -8.3927  -28.0816   30.0067 H   0  0  0  0  0  0  0  0  0  0  0  0
  -10.3821  -27.4208   31.9216 H   0  0  0  0  0  0  0  0  0  0  0  0
  -13.0352  -28.3962   30.1446 H   0  0  0  0  0  0  0  0  0  0  0  0
  -11.6439  -27.8305   27.6115 H   0  0  0  0  0  0  0  0  0  0  0  0
  -10.5101  -39.4596   27.0152 H   0  0  0  0  0  0  0  0  0  0  0  0
  -11.2652  -40.4229   24.8481 H   0  0  0  0  0  0  0  0  0  0  0  0
  -10.9623  -39.1543   22.7448 H   0  0  0  0  0  0  0  0  0  0  0  0
   -9.8927  -36.9059   22.7852 H   0  0  0  0  0  0  0  0  0  0  0  0
  1  2  1  0
  2  3  1  0
  3  4  1  0
  4  5  1  0
  5  6  1  0
  6  7  1  0
  7  8  2  0
  7  9  1  0
  9 10  2  0
 10 11  1  0
 11 12  2  0
 12 13  1  0
 13 14  2  0
  3 15  1  0
 15 16  2  0
 16 17  1  0
 17 18  2  0
 18 19  1  0
 19 20  2  0
 20 21  1  0
 21 22  2  0
 22 23  1  0
 14  9  1  0
 23 15  1  0
 22 17  1  0
  1 24  1  0
  1 25  1  0
  1 26  1  0
  2 27  1  0
  2 28  1  0
  4 29  1  0
  4 30  1  0
  5 31  1  0
  5 32  1  0
  6 33  1  0
 10 34  1  0
 11 35  1  0
 13 36  1  0
 14 37  1  0
 18 38  1  0
 19 39  1  0
 20 40  1  0
 21 41  1  0
M  END
>  <Energy>  (1428) 
436.43401136723207

>  <compound_id>  (1428) 
6774

>  <target_id>  (1428) 
1

>  <reference_id>  (1428) 
68

>  <inspiration_ids>  (1428) 
[68, 82]

>  <energy_score>  (1428) 
352.78390870151736

>  <distance_score>  (1428) 
4.396924653805685

>  <path>  (1428) 
/opt/xchem-fragalysis-2/maxwin/BulkDock/SCRATCH/511018/C6774-P68/C6774-P68.minimised.mol

>  <scratch_subdir>  (1428) 
/opt/xchem-fragalysis-2/maxwin/BulkDock/SCRATCH/511018/C6774-P68

>  <fragmenstein_runtime>  (1428) 
14.562536478042603

>  <fragmenstein_outcome>  (1428) 
too moved

>  <fragmenstein_mode>  (1428) 
expansion

>  <fragmenstein_error>  (1428) 


$$$$
C6774-P82
     RDKit          3D

 41 43  0  0  0  0  0  0  0  0999 V2000
  -14.8856  -32.5012   24.4101 C   0  0  0  0  0  0  0  0  0  0  0  0
  -13.8382  -33.3219   25.1437 C   0  0  0  0  0  0  0  0  0  0  0  0
  -12.5275  -32.6212   25.1695 N   0  0  0  0  0  0  0  0  0  0  0  0
  -12.3990  -31.6805   26.3877 C   0  0  0  0  0  0  0  0  0  0  0  0
  -13.1250  -30.2660   26.4029 C   0  0  0  0  0  0  0  0  0  0  0  0
  -12.4967  -29.1541   27.1788 N   0  0  0  0  0  0  0  0  0  0  0  0
  -12.9519  -27.6659   27.3750 C   0  0  0  0  0  0  0  0  0  0  0  0
  -13.9274  -27.1160   27.0199 O   0  0  0  0  0  0  0  0  0  0  0  0
  -12.0213  -26.7735   28.2300 C   0  0  0  0  0  0  0  0  0  0  0  0
  -11.5213  -27.1438   29.4809 C   0  0  0  0  0  0  0  0  0  0  0  0
  -10.8317  -26.2474   30.3007 C   0  0  0  0  0  0  0  0  0  0  0  0
  -10.6567  -24.9656   29.9759 N   0  0  0  0  0  0  0  0  0  0  0  0
  -11.2190  -24.5784   28.8094 C   0  0  0  0  0  0  0  0  0  0  0  0
  -11.8872  -25.4220   27.9207 C   0  0  0  0  0  0  0  0  0  0  0  0
  -11.4722  -33.5445   24.8651 C   0  0  0  0  0  0  0  0  0  0  0  0
  -11.1970  -34.6498   25.5339 N   0  0  0  0  0  0  0  0  0  0  0  0
  -10.2546  -35.4382   24.8825 C   0  0  0  0  0  0  0  0  0  0  0  0
   -9.7520  -36.6605   25.3489 C   0  0  0  0  0  0  0  0  0  0  0  0
   -8.8329  -37.3505   24.5622 C   0  0  0  0  0  0  0  0  0  0  0  0
   -8.4097  -36.8404   23.3368 C   0  0  0  0  0  0  0  0  0  0  0  0
   -8.8832  -35.6251   22.8611 C   0  0  0  0  0  0  0  0  0  0  0  0
   -9.8067  -34.9531   23.6625 C   0  0  0  0  0  0  0  0  0  0  0  0
  -10.5725  -33.4766   23.3632 S   0  0  0  0  0  0  0  0  0  0  0  0
  -15.8377  -33.0412   24.3873 H   0  0  0  0  0  0  0  0  0  0  0  0
  -15.0621  -31.5362   24.8903 H   0  0  0  0  0  0  0  0  0  0  0  0
  -14.5807  -32.3167   23.3758 H   0  0  0  0  0  0  0  0  0  0  0  0
  -14.1807  -33.5510   26.1598 H   0  0  0  0  0  0  0  0  0  0  0  0
  -13.7615  -34.2851   24.6210 H   0  0  0  0  0  0  0  0  0  0  0  0
  -11.3372  -31.5321   26.6097 H   0  0  0  0  0  0  0  0  0  0  0  0
  -12.8824  -32.1707   27.2320 H   0  0  0  0  0  0  0  0  0  0  0  0
  -13.2991  -29.8585   25.4143 H   0  0  0  0  0  0  0  0  0  0  0  0
  -14.1246  -30.3909   26.8369 H   0  0  0  0  0  0  0  0  0  0  0  0
  -11.5637  -29.2719   27.5411 H   0  0  0  0  0  0  0  0  0  0  0  0
  -11.7363  -28.1213   29.8695 H   0  0  0  0  0  0  0  0  0  0  0  0
  -10.4226  -26.5540   31.2596 H   0  0  0  0  0  0  0  0  0  0  0  0
  -11.1308  -23.5174   28.5854 H   0  0  0  0  0  0  0  0  0  0  0  0
  -12.3327  -25.0077   27.0210 H   0  0  0  0  0  0  0  0  0  0  0  0
  -10.0891  -37.0574   26.3003 H   0  0  0  0  0  0  0  0  0  0  0  0
   -8.4416  -38.3041   24.9097 H   0  0  0  0  0  0  0  0  0  0  0  0
   -7.6867  -37.3971   22.7433 H   0  0  0  0  0  0  0  0  0  0  0  0
   -8.5440  -35.2127   21.9158 H   0  0  0  0  0  0  0  0  0  0  0  0
  1  2  1  0
  2  3  1  0
  3  4  1  0
  4  5  1  0
  5  6  1  0
  6  7  1  0
  7  8  2  0
  7  9  1  0
  9 10  2  0
 10 11  1  0
 11 12  2  0
 12 13  1  0
 13 14  2  0
  3 15  1  0
 15 16  2  0
 16 17  1  0
 17 18  2  0
 18 19  1  0
 19 20  2  0
 20 21  1  0
 21 22  2  0
 22 23  1  0
 14  9  1  0
 23 15  1  0
 22 17  1  0
  1 24  1  0
  1 25  1  0
  1 26  1  0
  2 27  1  0
  2 28  1  0
  4 29  1  0
  4 30  1  0
  5 31  1  0
  5 32  1  0
  6 33  1  0
 10 34  1  0
 11 35  1  0
 13 36  1  0
 14 37  1  0
 18 38  1  0
 19 39  1  0
 20 40  1  0
 21 41  1  0
M  END
>  <Energy>  (1429) 
53.838099401286598

>  <compound_id>  (1429) 
6774

>  <target_id>  (1429) 
1

>  <reference_id>  (1429) 
82

>  <inspiration_ids>  (1429) 
[68, 82]

>  <energy_score>  (1429) 
-23.536227597629477

>  <distance_score>  (1429) 
3.872514516492003

>  <path>  (1429) 
/opt/xchem-fragalysis-2/maxwin/BulkDock/SCRATCH/511018/C6774-P82/C6774-P82.minimised.mol

>  <scratch_subdir>  (1429) 
/opt/xchem-fragalysis-2/maxwin/BulkDock/SCRATCH/511018/C6774-P82

>  <fragmenstein_runtime>  (1429) 
5.94262433052063

>  <fragmenstein_outcome>  (1429) 
too moved

>  <fragmenstein_mode>  (1429) 
expansion

>  <fragmenstein_error>  (1429) 


$$$$
C6775-P68
     RDKit          3D

 41 43  0  0  0  0  0  0  0  0999 V2000
  -10.6725  -33.0876   23.9976 C   0  0  0  0  0  0  0  0  0  0  0  0
  -11.0044  -33.1236   25.4926 C   0  0  0  0  0  0  0  0  0  0  0  0
  -11.5038  -31.6182   26.3642 N   0  0  0  0  0  0  0  0  0  0  0  0
  -10.3266  -30.2324   27.1760 C   0  0  0  0  0  0  0  0  0  0  0  0
  -10.9932  -28.7073   27.7103 C   0  0  0  0  0  0  0  0  0  0  0  0
  -11.1291  -27.8002   28.9819 N   0  0  0  0  0  0  0  0  0  0  0  0
  -11.8971  -28.1421   30.7007 C   0  0  0  0  0  0  0  0  0  0  0  0
  -12.4967  -29.1610   31.0249 O   0  0  0  0  0  0  0  0  0  0  0  0
  -11.9901  -26.7895   32.2083 C   0  0  0  0  0  0  0  0  0  0  0  0
  -11.4074  -24.8985   32.4989 C   0  0  0  0  0  0  0  0  0  0  0  0
  -10.0995  -24.9086   32.6123 C   0  0  0  0  0  0  0  0  0  0  0  0
  -10.3442  -26.0794   33.1428 N   0  0  0  0  0  0  0  0  0  0  0  0
  -11.4973  -27.2942   33.6263 C   0  0  0  0  0  0  0  0  0  0  0  0
  -12.5298  -27.6525   33.0883 C   0  0  0  0  0  0  0  0  0  0  0  0
  -12.9648  -31.7384   26.2905 C   0  0  0  0  0  0  0  0  0  0  0  0
  -13.8610  -31.6012   27.2380 N   0  0  0  0  0  0  0  0  0  0  0  0
  -14.6517  -32.7477   27.3145 C   0  0  0  0  0  0  0  0  0  0  0  0
  -15.3541  -33.2031   28.4456 C   0  0  0  0  0  0  0  0  0  0  0  0
  -16.0205  -34.4348   28.4029 C   0  0  0  0  0  0  0  0  0  0  0  0
  -16.0318  -35.1959   27.2391 C   0  0  0  0  0  0  0  0  0  0  0  0
  -15.3822  -34.7363   26.1024 C   0  0  0  0  0  0  0  0  0  0  0  0
  -15.4033  -35.4712   24.9824 F   0  0  0  0  0  0  0  0  0  0  0  0
  -14.6947  -33.5254   26.1675 C   0  0  0  0  0  0  0  0  0  0  0  0
  -13.8183  -32.7168   24.9719 S   0  0  0  0  0  0  0  0  0  0  0  0
  -11.4821  -32.6953   23.3770 H   0  0  0  0  0  0  0  0  0  0  0  0
  -10.4758  -34.1082   23.6503 H   0  0  0  0  0  0  0  0  0  0  0  0
   -9.7764  -32.5074   23.7890 H   0  0  0  0  0  0  0  0  0  0  0  0
  -10.2583  -33.7398   26.0272 H   0  0  0  0  0  0  0  0  0  0  0  0
  -11.8235  -33.8340   25.6246 H   0  0  0  0  0  0  0  0  0  0  0  0
   -9.8074  -30.8503   27.8948 H   0  0  0  0  0  0  0  0  0  0  0  0
   -9.4518  -29.6594   26.8832 H   0  0  0  0  0  0  0  0  0  0  0  0
  -11.3381  -28.1087   26.8463 H   0  0  0  0  0  0  0  0  0  0  0  0
  -10.0044  -28.2286   27.6177 H   0  0  0  0  0  0  0  0  0  0  0  0
  -10.6014  -26.9124   28.9980 H   0  0  0  0  0  0  0  0  0  0  0  0
  -11.3581  -24.0628   31.7419 H   0  0  0  0  0  0  0  0  0  0  0  0
   -9.2099  -24.3995   32.4116 H   0  0  0  0  0  0  0  0  0  0  0  0
  -11.4347  -27.8974   34.5570 H   0  0  0  0  0  0  0  0  0  0  0  0
  -12.9886  -28.6086   33.1613 H   0  0  0  0  0  0  0  0  0  0  0  0
  -15.3202  -32.6235   29.3646 H   0  0  0  0  0  0  0  0  0  0  0  0
  -16.5321  -34.7934   29.2938 H   0  0  0  0  0  0  0  0  0  0  0  0
  -16.5571  -36.1461   27.2073 H   0  0  0  0  0  0  0  0  0  0  0  0
  1  2  1  0
  2  3  1  0
  3  4  1  0
  4  5  1  0
  5  6  1  0
  6  7  1  0
  7  8  2  0
  7  9  1  0
  9 10  2  0
 10 11  1  0
 11 12  2  0
 12 13  1  0
 13 14  2  0
  3 15  1  0
 15 16  2  0
 16 17  1  0
 17 18  2  0
 18 19  1  0
 19 20  2  0
 20 21  1  0
 21 22  1  0
 21 23  2  0
 23 24  1  0
 14  9  1  0
 24 15  1  0
 23 17  1  0
  1 25  1  0
  1 26  1  0
  1 27  1  0
  2 28  1  0
  2 29  1  0
  4 30  1  0
  4 31  1  0
  5 32  1  0
  5 33  1  0
  6 34  1  0
 10 35  1  0
 11 36  1  0
 13 37  1  0
 14 38  1  0
 18 39  1  0
 19 40  1  0
 20 41  1  0
M  END
>  <Energy>  (1430) 
786.41129322334154

>  <compound_id>  (1430) 
6775

>  <target_id>  (1430) 
1

>  <reference_id>  (1430) 
68

>  <inspiration_ids>  (1430) 
[68, 82]

>  <energy_score>  (1430) 
722.369641926238

>  <distance_score>  (1430) 
6.118354364652125

>  <path>  (1430) 
/opt/xchem-fragalysis-2/maxwin/BulkDock/SCRATCH/511018/C6775-P68/C6775-P68.minimised.mol

>  <scratch_subdir>  (1430) 
/opt/xchem-fragalysis-2/maxwin/BulkDock/SCRATCH/511018/C6775-P68

>  <fragmenstein_runtime>  (1430) 
8.635377645492554

>  <fragmenstein_outcome>  (1430) 
too moved

>  <fragmenstein_mode>  (1430) 
expansion

>  <fragmenstein_error>  (1430) 


$$$$
C6775-P82
     RDKit          3D

 41 43  0  0  0  0  0  0  0  0999 V2000
   -9.2807  -30.7593   25.9350 C   0  0  0  0  0  0  0  0  0  0  0  0
  -10.6018  -31.0269   26.5767 C   0  0  0  0  0  0  0  0  0  0  0  0
  -11.6103  -31.8209   25.8309 N   0  0  0  0  0  0  0  0  0  0  0  0
  -12.9825  -31.5232   26.3934 C   0  0  0  0  0  0  0  0  0  0  0  0
  -13.4251  -29.9481   26.4866 C   0  0  0  0  0  0  0  0  0  0  0  0
  -12.7939  -28.9016   27.3712 N   0  0  0  0  0  0  0  0  0  0  0  0
  -12.9672  -27.3356   27.3849 C   0  0  0  0  0  0  0  0  0  0  0  0
  -13.6844  -26.6448   26.7612 O   0  0  0  0  0  0  0  0  0  0  0  0
  -12.0898  -26.5359   28.4068 C   0  0  0  0  0  0  0  0  0  0  0  0
  -11.4638  -27.0858   29.5110 C   0  0  0  0  0  0  0  0  0  0  0  0
  -10.7592  -26.3118   30.4382 C   0  0  0  0  0  0  0  0  0  0  0  0
  -10.7244  -24.9786   30.4095 N   0  0  0  0  0  0  0  0  0  0  0  0
  -11.4230  -24.4180   29.4067 C   0  0  0  0  0  0  0  0  0  0  0  0
  -12.0726  -25.1347   28.3949 C   0  0  0  0  0  0  0  0  0  0  0  0
  -11.2434  -33.0808   25.1898 C   0  0  0  0  0  0  0  0  0  0  0  0
  -11.6252  -34.2931   25.5490 N   0  0  0  0  0  0  0  0  0  0  0  0
  -10.9619  -35.3086   24.8579 C   0  0  0  0  0  0  0  0  0  0  0  0
  -11.0691  -36.6825   25.1275 C   0  0  0  0  0  0  0  0  0  0  0  0
  -10.4066  -37.5947   24.3060 C   0  0  0  0  0  0  0  0  0  0  0  0
   -9.6461  -37.1575   23.2273 C   0  0  0  0  0  0  0  0  0  0  0  0
   -9.5077  -35.8041   22.9691 C   0  0  0  0  0  0  0  0  0  0  0  0
   -8.7550  -35.4009   21.9384 F   0  0  0  0  0  0  0  0  0  0  0  0
  -10.1593  -34.9014   23.8056 C   0  0  0  0  0  0  0  0  0  0  0  0
  -10.1458  -33.2196   23.7770 S   0  0  0  0  0  0  0  0  0  0  0  0
   -9.2182  -29.7750   25.4585 H   0  0  0  0  0  0  0  0  0  0  0  0
   -8.5392  -30.7354   26.7093 H   0  0  0  0  0  0  0  0  0  0  0  0
   -8.9854  -31.5189   25.2308 H   0  0  0  0  0  0  0  0  0  0  0  0
  -10.9809  -30.0211   26.6842 H   0  0  0  0  0  0  0  0  0  0  0  0
  -10.5416  -31.3586   27.5903 H   0  0  0  0  0  0  0  0  0  0  0  0
  -13.0909  -31.9382   27.3964 H   0  0  0  0  0  0  0  0  0  0  0  0
  -13.7202  -32.0158   25.7489 H   0  0  0  0  0  0  0  0  0  0  0  0
  -13.3982  -29.5125   25.4862 H   0  0  0  0  0  0  0  0  0  0  0  0
  -14.4808  -29.9442   26.7840 H   0  0  0  0  0  0  0  0  0  0  0  0
  -12.0320  -29.1611   27.9730 H   0  0  0  0  0  0  0  0  0  0  0  0
  -11.6142  -28.1138   29.7533 H   0  0  0  0  0  0  0  0  0  0  0  0
  -10.2488  -26.7737   31.2799 H   0  0  0  0  0  0  0  0  0  0  0  0
  -11.4507  -23.3316   29.4027 H   0  0  0  0  0  0  0  0  0  0  0  0
  -12.5955  -24.5838   27.6173 H   0  0  0  0  0  0  0  0  0  0  0  0
  -11.6835  -37.0208   25.9563 H   0  0  0  0  0  0  0  0  0  0  0  0
  -10.4992  -38.6604   24.5043 H   0  0  0  0  0  0  0  0  0  0  0  0
   -9.1405  -37.8721   22.5837 H   0  0  0  0  0  0  0  0  0  0  0  0
  1  2  1  0
  2  3  1  0
  3  4  1  0
  4  5  1  0
  5  6  1  0
  6  7  1  0
  7  8  2  0
  7  9  1  0
  9 10  2  0
 10 11  1  0
 11 12  2  0
 12 13  1  0
 13 14  2  0
  3 15  1  0
 15 16  2  0
 16 17  1  0
 17 18  2  0
 18 19  1  0
 19 20  2  0
 20 21  1  0
 21 22  1  0
 21 23  2  0
 23 24  1  0
 14  9  1  0
 24 15  1  0
 23 17  1  0
  1 25  1  0
  1 26  1  0
  1 27  1  0
  2 28  1  0
  2 29  1  0
  4 30  1  0
  4 31  1  0
  5 32  1  0
  5 33  1  0
  6 34  1  0
 10 35  1  0
 11 36  1  0
 13 37  1  0
 14 38  1  0
 18 39  1  0
 19 40  1  0
 20 41  1  0
M  END
>  <Energy>  (1431) 
71.628873104130548

>  <compound_id>  (1431) 
6775

>  <target_id>  (1431) 
1

>  <reference_id>  (1431) 
82

>  <inspiration_ids>  (1431) 
[68, 82]

>  <energy_score>  (1431) 
-4.977859246327171

>  <distance_score>  (1431) 
3.9111525048662314

>  <path>  (1431) 
/opt/xchem-fragalysis-2/maxwin/BulkDock/SCRATCH/511018/C6775-P82/C6775-P82.minimised.mol

>  <scratch_subdir>  (1431) 
/opt/xchem-fragalysis-2/maxwin/BulkDock/SCRATCH/511018/C6775-P82

>  <fragmenstein_runtime>  (1431) 
5.1241796016693115

>  <fragmenstein_outcome>  (1431) 
too moved

>  <fragmenstein_mode>  (1431) 
expansion

>  <fragmenstein_error>  (1431) 


$$$$
C6776-P68
     RDKit          3D

 44 46  0  0  0  0  0  0  0  0999 V2000
   -7.9244  -33.9339   30.2182 C   0  0  0  0  0  0  0  0  0  0  0  0
   -9.1098  -32.6033   29.6505 C   0  0  0  0  0  0  0  0  0  0  0  0
   -9.6759  -32.1350   28.2222 N   0  0  0  0  0  0  0  0  0  0  0  0
   -9.7904  -30.2174   27.7022 C   0  0  0  0  0  0  0  0  0  0  0  0
  -10.9064  -28.6600   27.7224 C   0  0  0  0  0  0  0  0  0  0  0  0
  -11.7224  -28.6692   29.0653 N   0  0  0  0  0  0  0  0  0  0  0  0
  -12.2652  -27.8616   29.6335 C   0  0  0  0  0  0  0  0  0  0  0  0
  -12.4545  -26.8343   29.3747 O   0  0  0  0  0  0  0  0  0  0  0  0
  -12.6304  -28.8534   31.2975 C   0  0  0  0  0  0  0  0  0  0  0  0
  -13.7362  -29.6950   31.8030 C   0  0  0  0  0  0  0  0  0  0  0  0
  -13.8883  -30.1842   33.1024 C   0  0  0  0  0  0  0  0  0  0  0  0
  -13.1823  -29.7292   34.1109 N   0  0  0  0  0  0  0  0  0  0  0  0
  -12.3387  -28.7611   33.7580 C   0  0  0  0  0  0  0  0  0  0  0  0
  -11.9635  -28.4015   32.4303 C   0  0  0  0  0  0  0  0  0  0  0  0
   -9.6184  -33.6747   27.2339 C   0  0  0  0  0  0  0  0  0  0  0  0
   -9.0832  -34.8889   27.3035 N   0  0  0  0  0  0  0  0  0  0  0  0
   -9.3385  -35.7252   26.1523 C   0  0  0  0  0  0  0  0  0  0  0  0
   -8.9896  -37.0863   26.0290 C   0  0  0  0  0  0  0  0  0  0  0  0
   -9.1306  -37.7920   24.8318 C   0  0  0  0  0  0  0  0  0  0  0  0
   -9.6498  -37.1639   23.7163 C   0  0  0  0  0  0  0  0  0  0  0  0
  -10.1048  -35.8434   23.7915 C   0  0  0  0  0  0  0  0  0  0  0  0
  -10.7652  -35.2303   22.5862 C   0  0  0  0  0  0  0  0  0  0  0  0
   -9.9946  -35.1909   25.0510 C   0  0  0  0  0  0  0  0  0  0  0  0
  -10.7996  -33.7689   25.5091 S   0  0  0  0  0  0  0  0  0  0  0  0
   -6.8434  -33.8486   30.0591 H   0  0  0  0  0  0  0  0  0  0  0  0
   -8.1349  -34.8064   29.6234 H   0  0  0  0  0  0  0  0  0  0  0  0
   -8.1172  -34.1273   31.2807 H   0  0  0  0  0  0  0  0  0  0  0  0
   -9.8330  -32.4267   30.4676 H   0  0  0  0  0  0  0  0  0  0  0  0
   -9.0830  -33.4144   29.0002 H   0  0  0  0  0  0  0  0  0  0  0  0
   -9.1075  -29.7108   27.0442 H   0  0  0  0  0  0  0  0  0  0  0  0
   -9.2541  -29.7195   28.5235 H   0  0  0  0  0  0  0  0  0  0  0  0
  -10.1575  -27.8859   27.9313 H   0  0  0  0  0  0  0  0  0  0  0  0
  -11.2908  -28.2419   26.7938 H   0  0  0  0  0  0  0  0  0  0  0  0
  -11.8209  -29.4289   29.5271 H   0  0  0  0  0  0  0  0  0  0  0  0
  -14.6306  -29.9824   31.2598 H   0  0  0  0  0  0  0  0  0  0  0  0
  -14.6817  -30.8808   33.3549 H   0  0  0  0  0  0  0  0  0  0  0  0
  -11.9584  -28.2168   34.6161 H   0  0  0  0  0  0  0  0  0  0  0  0
  -11.3364  -27.5384   32.3195 H   0  0  0  0  0  0  0  0  0  0  0  0
   -8.5708  -37.6019   26.8750 H   0  0  0  0  0  0  0  0  0  0  0  0
   -8.8090  -38.8296   24.7814 H   0  0  0  0  0  0  0  0  0  0  0  0
   -9.7358  -37.7212   22.7855 H   0  0  0  0  0  0  0  0  0  0  0  0
  -10.3423  -35.6370   21.6612 H   0  0  0  0  0  0  0  0  0  0  0  0
  -11.8395  -35.4381   22.6029 H   0  0  0  0  0  0  0  0  0  0  0  0
  -10.6105  -34.1472   22.5570 H   0  0  0  0  0  0  0  0  0  0  0  0
  1  2  1  0
  2  3  1  0
  3  4  1  0
  4  5  1  0
  5  6  1  0
  6  7  1  0
  7  8  2  0
  7  9  1  0
  9 10  2  0
 10 11  1  0
 11 12  2  0
 12 13  1  0
 13 14  2  0
  3 15  1  0
 15 16  2  0
 16 17  1  0
 17 18  2  0
 18 19  1  0
 19 20  2  0
 20 21  1  0
 21 22  1  0
 21 23  2  0
 23 24  1  0
 14  9  1  0
 24 15  1  0
 23 17  1  0
  1 25  1  0
  1 26  1  0
  1 27  1  0
  2 28  1  0
  2 29  1  0
  4 30  1  0
  4 31  1  0
  5 32  1  0
  5 33  1  0
  6 34  1  0
 10 35  1  0
 11 36  1  0
 13 37  1  0
 14 38  1  0
 18 39  1  0
 19 40  1  0
 20 41  1  0
 22 42  1  0
 22 43  1  0
 22 44  1  0
M  END
>  <Energy>  (1432) 
587.61462584095455

>  <compound_id>  (1432) 
6776

>  <target_id>  (1432) 
1

>  <reference_id>  (1432) 
68

>  <inspiration_ids>  (1432) 
[68, 82]

>  <energy_score>  (1432) 
502.52573563724593

>  <distance_score>  (1432) 
4.489414427820263

>  <path>  (1432) 
/opt/xchem-fragalysis-2/maxwin/BulkDock/SCRATCH/511018/C6776-P68/C6776-P68.minimised.mol

>  <scratch_subdir>  (1432) 
/opt/xchem-fragalysis-2/maxwin/BulkDock/SCRATCH/511018/C6776-P68

>  <fragmenstein_runtime>  (1432) 
13.712559700012207

>  <fragmenstein_outcome>  (1432) 
too moved

>  <fragmenstein_mode>  (1432) 
expansion

>  <fragmenstein_error>  (1432) 


$$$$
C6776-P82
     RDKit          3D

 44 46  0  0  0  0  0  0  0  0999 V2000
  -14.5806  -34.5367   26.9717 C   0  0  0  0  0  0  0  0  0  0  0  0
  -14.1897  -34.0273   25.5973 C   0  0  0  0  0  0  0  0  0  0  0  0
  -12.9640  -33.1992   25.6536 N   0  0  0  0  0  0  0  0  0  0  0  0
  -13.2475  -31.7127   25.9407 C   0  0  0  0  0  0  0  0  0  0  0  0
  -12.4930  -31.0296   27.1165 C   0  0  0  0  0  0  0  0  0  0  0  0
  -12.4852  -29.6436   27.7011 N   0  0  0  0  0  0  0  0  0  0  0  0
  -12.3055  -28.2515   27.0114 C   0  0  0  0  0  0  0  0  0  0  0  0
  -12.2152  -27.9737   25.8778 O   0  0  0  0  0  0  0  0  0  0  0  0
  -12.1109  -27.0424   28.0407 C   0  0  0  0  0  0  0  0  0  0  0  0
  -12.1909  -25.7095   27.6366 C   0  0  0  0  0  0  0  0  0  0  0  0
  -11.7739  -24.6720   28.4932 C   0  0  0  0  0  0  0  0  0  0  0  0
  -11.2285  -24.8424   29.7102 N   0  0  0  0  0  0  0  0  0  0  0  0
  -11.1640  -26.1057   30.1153 C   0  0  0  0  0  0  0  0  0  0  0  0
  -11.6190  -27.1825   29.3451 C   0  0  0  0  0  0  0  0  0  0  0  0
  -11.8234  -33.8785   25.1446 C   0  0  0  0  0  0  0  0  0  0  0  0
  -11.5875  -35.1550   25.4200 N   0  0  0  0  0  0  0  0  0  0  0  0
  -10.5087  -35.6754   24.7176 C   0  0  0  0  0  0  0  0  0  0  0  0
  -10.0444  -36.9930   24.7989 C   0  0  0  0  0  0  0  0  0  0  0  0
   -8.9992  -37.3835   23.9694 C   0  0  0  0  0  0  0  0  0  0  0  0
   -8.4053  -36.4811   23.0897 C   0  0  0  0  0  0  0  0  0  0  0  0
   -8.8042  -35.1433   23.0218 C   0  0  0  0  0  0  0  0  0  0  0  0
   -8.1059  -34.1913   22.0929 C   0  0  0  0  0  0  0  0  0  0  0  0
   -9.8816  -34.7918   23.8532 C   0  0  0  0  0  0  0  0  0  0  0  0
  -10.6496  -33.2924   24.0387 S   0  0  0  0  0  0  0  0  0  0  0  0
  -14.7241  -33.7113   27.6756 H   0  0  0  0  0  0  0  0  0  0  0  0
  -13.8138  -35.2052   27.3735 H   0  0  0  0  0  0  0  0  0  0  0  0
  -15.5178  -35.0992   26.9141 H   0  0  0  0  0  0  0  0  0  0  0  0
  -15.0146  -33.4370   25.1790 H   0  0  0  0  0  0  0  0  0  0  0  0
  -14.0758  -34.8785   24.9130 H   0  0  0  0  0  0  0  0  0  0  0  0
  -13.1619  -31.1608   25.0423 H   0  0  0  0  0  0  0  0  0  0  0  0
  -14.3126  -31.6185   26.1936 H   0  0  0  0  0  0  0  0  0  0  0  0
  -11.4298  -31.2525   26.9895 H   0  0  0  0  0  0  0  0  0  0  0  0
  -12.8891  -31.5730   27.9758 H   0  0  0  0  0  0  0  0  0  0  0  0
  -12.6098  -29.5152   28.6915 H   0  0  0  0  0  0  0  0  0  0  0  0
  -12.5287  -25.4615   26.6335 H   0  0  0  0  0  0  0  0  0  0  0  0
  -11.8497  -23.6368   28.1668 H   0  0  0  0  0  0  0  0  0  0  0  0
  -10.7402  -26.2594   31.1048 H   0  0  0  0  0  0  0  0  0  0  0  0
  -11.5724  -28.1261   29.8404 H   0  0  0  0  0  0  0  0  0  0  0  0
  -10.5194  -37.6951   25.4752 H   0  0  0  0  0  0  0  0  0  0  0  0
   -8.6442  -38.4111   24.0037 H   0  0  0  0  0  0  0  0  0  0  0  0
   -7.5872  -36.8278   22.4585 H   0  0  0  0  0  0  0  0  0  0  0  0
   -7.0740  -34.5095   21.9099 H   0  0  0  0  0  0  0  0  0  0  0  0
   -8.6346  -34.1511   21.1357 H   0  0  0  0  0  0  0  0  0  0  0  0
   -8.0605  -33.1836   22.5172 H   0  0  0  0  0  0  0  0  0  0  0  0
  1  2  1  0
  2  3  1  0
  3  4  1  0
  4  5  1  0
  5  6  1  0
  6  7  1  0
  7  8  2  0
  7  9  1  0
  9 10  2  0
 10 11  1  0
 11 12  2  0
 12 13  1  0
 13 14  2  0
  3 15  1  0
 15 16  2  0
 16 17  1  0
 17 18  2  0
 18 19  1  0
 19 20  2  0
 20 21  1  0
 21 22  1  0
 21 23  2  0
 23 24  1  0
 14  9  1  0
 24 15  1  0
 23 17  1  0
  1 25  1  0
  1 26  1  0
  1 27  1  0
  2 28  1  0
  2 29  1  0
  4 30  1  0
  4 31  1  0
  5 32  1  0
  5 33  1  0
  6 34  1  0
 10 35  1  0
 11 36  1  0
 13 37  1  0
 14 38  1  0
 18 39  1  0
 19 40  1  0
 20 41  1  0
 22 42  1  0
 22 43  1  0
 22 44  1  0
M  END
>  <Energy>  (1433) 
69.009750211675779

>  <compound_id>  (1433) 
6776

>  <target_id>  (1433) 
1

>  <reference_id>  (1433) 
82

>  <inspiration_ids>  (1433) 
[68, 82]

>  <energy_score>  (1433) 
21.765788744960673

>  <distance_score>  (1433) 
4.176481833095362

>  <path>  (1433) 
/opt/xchem-fragalysis-2/maxwin/BulkDock/SCRATCH/511018/C6776-P82/C6776-P82.minimised.mol

>  <scratch_subdir>  (1433) 
/opt/xchem-fragalysis-2/maxwin/BulkDock/SCRATCH/511018/C6776-P82

>  <fragmenstein_runtime>  (1433) 
6.389283180236816

>  <fragmenstein_outcome>  (1433) 
too moved

>  <fragmenstein_mode>  (1433) 
expansion

>  <fragmenstein_error>  (1433) 


$$$$
C6777-P68
     RDKit          3D

 37 39  0  0  0  0  0  0  0  0999 V2000
  -10.4651  -25.2259   25.8005 O   0  0  0  0  0  0  0  0  0  0  0  0
  -10.3477  -25.9743   26.7230 C   0  0  0  0  0  0  0  0  0  0  0  0
  -10.9098  -27.6291   26.4517 C   0  0  0  0  0  0  0  0  0  0  0  0
  -10.6512  -29.2925   27.1689 C   0  0  0  0  0  0  0  0  0  0  0  0
  -11.3091  -31.0672   26.5008 N   0  0  0  0  0  0  0  0  0  0  0  0
  -12.7161  -31.5687   26.2198 C   0  0  0  0  0  0  0  0  0  0  0  0
  -13.7833  -31.0464   26.4068 O   0  0  0  0  0  0  0  0  0  0  0  0
  -12.7150  -32.9694   25.4948 C   0  0  0  0  0  0  0  0  0  0  0  0
  -13.8910  -33.7192   25.4729 C   0  0  0  0  0  0  0  0  0  0  0  0
  -13.9451  -35.0032   24.8844 C   0  0  0  0  0  0  0  0  0  0  0  0
  -12.7801  -35.5502   24.3157 C   0  0  0  0  0  0  0  0  0  0  0  0
  -12.5060  -37.0790   23.5668 S   0  0  0  0  0  0  0  0  0  0  0  0
  -10.8631  -36.6617   23.3117 C   0  0  0  0  0  0  0  0  0  0  0  0
  -10.5026  -35.4670   23.7199 N   0  0  0  0  0  0  0  0  0  0  0  0
  -11.5908  -34.8322   24.2963 C   0  0  0  0  0  0  0  0  0  0  0  0
  -11.5835  -33.5405   24.8631 C   0  0  0  0  0  0  0  0  0  0  0  0
   -9.8591  -25.7460   28.0596 N   0  0  0  0  0  0  0  0  0  0  0  0
   -9.4244  -24.4545   28.7737 C   0  0  0  0  0  0  0  0  0  0  0  0
   -8.6592  -24.7808   30.3484 C   0  0  0  0  0  0  0  0  0  0  0  0
   -9.6521  -24.3100   31.5002 C   0  0  0  0  0  0  0  0  0  0  0  0
  -10.8070  -23.3409   31.1628 N   0  0  0  0  0  0  0  0  0  0  0  0
  -10.8328  -22.5639   29.7183 C   0  0  0  0  0  0  0  0  0  0  0  0
  -10.2698  -23.2387   28.5227 C   0  0  0  0  0  0  0  0  0  0  0  0
  -11.9633  -27.4813   26.2138 H   0  0  0  0  0  0  0  0  0  0  0  0
  -10.4342  -27.7427   25.4748 H   0  0  0  0  0  0  0  0  0  0  0  0
   -9.6315  -29.2886   26.8191 H   0  0  0  0  0  0  0  0  0  0  0  0
  -10.0667  -29.3205   28.0418 H   0  0  0  0  0  0  0  0  0  0  0  0
  -10.6527  -31.7935   26.2971 H   0  0  0  0  0  0  0  0  0  0  0  0
  -14.7941  -33.3176   25.9333 H   0  0  0  0  0  0  0  0  0  0  0  0
  -14.8753  -35.5663   24.8897 H   0  0  0  0  0  0  0  0  0  0  0  0
  -10.1708  -37.3453   22.8367 H   0  0  0  0  0  0  0  0  0  0  0  0
  -10.6308  -33.0476   24.7607 H   0  0  0  0  0  0  0  0  0  0  0  0
   -9.9775  -26.5806   28.5964 H   0  0  0  0  0  0  0  0  0  0  0  0
   -8.1425  -25.7152   30.5981 H   0  0  0  0  0  0  0  0  0  0  0  0
   -9.5844  -24.6568   32.5056 H   0  0  0  0  0  0  0  0  0  0  0  0
  -11.5850  -21.7769   29.6835 H   0  0  0  0  0  0  0  0  0  0  0  0
  -10.8083  -23.1106   27.5875 H   0  0  0  0  0  0  0  0  0  0  0  0
  1  2  2  0
  2  3  1  0
  3  4  1  0
  4  5  1  0
  5  6  1  0
  6  7  2  0
  6  8  1  0
  8  9  2  0
  9 10  1  0
 10 11  2  0
 11 12  1  0
 12 13  1  0
 13 14  2  0
 14 15  1  0
 15 16  2  0
  2 17  1  0
 17 18  1  0
 18 19  2  0
 19 20  1  0
 20 21  2  0
 21 22  1  0
 22 23  2  0
 16  8  1  0
 23 18  1  0
 15 11  1  0
  3 24  1  0
  3 25  1  0
  4 26  1  0
  4 27  1  0
  5 28  1  0
  9 29  1  0
 10 30  1  0
 13 31  1  0
 16 32  1  0
 17 33  1  0
 19 34  1  0
 20 35  1  0
 22 36  1  0
 23 37  1  0
M  END
>  <Energy>  (1434) 
324.69643352002481

>  <compound_id>  (1434) 
6777

>  <target_id>  (1434) 
1

>  <reference_id>  (1434) 
68

>  <inspiration_ids>  (1434) 
[68, 82]

>  <energy_score>  (1434) 
227.6718424660429

>  <distance_score>  (1434) 
3.632245409036386

>  <path>  (1434) 
/opt/xchem-fragalysis-2/maxwin/BulkDock/SCRATCH/511018/C6777-P68/C6777-P68.minimised.mol

>  <scratch_subdir>  (1434) 
/opt/xchem-fragalysis-2/maxwin/BulkDock/SCRATCH/511018/C6777-P68

>  <fragmenstein_runtime>  (1434) 
11.176173210144043

>  <fragmenstein_outcome>  (1434) 
too moved

>  <fragmenstein_mode>  (1434) 
expansion

>  <fragmenstein_error>  (1434) 


$$$$
C6777-P82
     RDKit          3D

 37 39  0  0  0  0  0  0  0  0999 V2000
  -13.3598  -28.0271   25.1361 O   0  0  0  0  0  0  0  0  0  0  0  0
  -13.2204  -28.5785   26.1922 C   0  0  0  0  0  0  0  0  0  0  0  0
  -13.8508  -29.9811   26.3643 C   0  0  0  0  0  0  0  0  0  0  0  0
  -12.9381  -31.1145   26.8282 C   0  0  0  0  0  0  0  0  0  0  0  0
  -12.5097  -32.1029   25.8472 N   0  0  0  0  0  0  0  0  0  0  0  0
  -13.2614  -33.0556   25.0792 C   0  0  0  0  0  0  0  0  0  0  0  0
  -14.4401  -33.2284   24.9890 O   0  0  0  0  0  0  0  0  0  0  0  0
  -12.3717  -33.9676   24.2639 C   0  0  0  0  0  0  0  0  0  0  0  0
  -12.6596  -34.1807   22.9151 C   0  0  0  0  0  0  0  0  0  0  0  0
  -11.7875  -34.9127   22.0923 C   0  0  0  0  0  0  0  0  0  0  0  0
  -10.6201  -35.4510   22.6611 C   0  0  0  0  0  0  0  0  0  0  0  0
   -9.3423  -36.3376   21.9174 S   0  0  0  0  0  0  0  0  0  0  0  0
   -8.5528  -36.4568   23.4329 C   0  0  0  0  0  0  0  0  0  0  0  0
   -9.1720  -35.9165   24.4592 N   0  0  0  0  0  0  0  0  0  0  0  0
  -10.3432  -35.3161   24.0221 C   0  0  0  0  0  0  0  0  0  0  0  0
  -11.2470  -34.5886   24.8261 C   0  0  0  0  0  0  0  0  0  0  0  0
  -12.6179  -28.1166   27.4295 N   0  0  0  0  0  0  0  0  0  0  0  0
  -12.1009  -26.8575   27.7912 C   0  0  0  0  0  0  0  0  0  0  0  0
  -11.5061  -26.7046   29.0464 C   0  0  0  0  0  0  0  0  0  0  0  0
  -11.0112  -25.4664   29.4210 C   0  0  0  0  0  0  0  0  0  0  0  0
  -11.0671  -24.3832   28.6294 N   0  0  0  0  0  0  0  0  0  0  0  0
  -11.6683  -24.5402   27.4308 C   0  0  0  0  0  0  0  0  0  0  0  0
  -12.1848  -25.7447   26.9665 C   0  0  0  0  0  0  0  0  0  0  0  0
  -14.6427  -29.8439   27.1137 H   0  0  0  0  0  0  0  0  0  0  0  0
  -14.3620  -30.2507   25.4337 H   0  0  0  0  0  0  0  0  0  0  0  0
  -13.4830  -31.6867   27.5873 H   0  0  0  0  0  0  0  0  0  0  0  0
  -12.0219  -30.7331   27.2851 H   0  0  0  0  0  0  0  0  0  0  0  0
  -11.5243  -32.1932   25.6143 H   0  0  0  0  0  0  0  0  0  0  0  0
  -13.5571  -33.7441   22.4793 H   0  0  0  0  0  0  0  0  0  0  0  0
  -12.0004  -35.0413   21.0347 H   0  0  0  0  0  0  0  0  0  0  0  0
   -7.5987  -36.9580   23.5312 H   0  0  0  0  0  0  0  0  0  0  0  0
  -11.0413  -34.5361   25.8829 H   0  0  0  0  0  0  0  0  0  0  0  0
  -12.6003  -28.8770   28.0917 H   0  0  0  0  0  0  0  0  0  0  0  0
  -11.4160  -27.5184   29.7499 H   0  0  0  0  0  0  0  0  0  0  0  0
  -10.5479  -25.3145   30.3918 H   0  0  0  0  0  0  0  0  0  0  0  0
  -11.7270  -23.6389   26.8249 H   0  0  0  0  0  0  0  0  0  0  0  0
  -12.6433  -25.7830   25.9852 H   0  0  0  0  0  0  0  0  0  0  0  0
  1  2  2  0
  2  3  1  0
  3  4  1  0
  4  5  1  0
  5  6  1  0
  6  7  2  0
  6  8  1  0
  8  9  2  0
  9 10  1  0
 10 11  2  0
 11 12  1  0
 12 13  1  0
 13 14  2  0
 14 15  1  0
 15 16  2  0
  2 17  1  0
 17 18  1  0
 18 19  2  0
 19 20  1  0
 20 21  2  0
 21 22  1  0
 22 23  2  0
 16  8  1  0
 23 18  1  0
 15 11  1  0
  3 24  1  0
  3 25  1  0
  4 26  1  0
  4 27  1  0
  5 28  1  0
  9 29  1  0
 10 30  1  0
 13 31  1  0
 16 32  1  0
 17 33  1  0
 19 34  1  0
 20 35  1  0
 22 36  1  0
 23 37  1  0
M  END
>  <Energy>  (1435) 
15.89980055436641

>  <compound_id>  (1435) 
6777

>  <target_id>  (1435) 
1

>  <reference_id>  (1435) 
82

>  <inspiration_ids>  (1435) 
[68, 82]

>  <energy_score>  (1435) 
-81.12479049961576

>  <distance_score>  (1435) 
3.7093265325953073

>  <path>  (1435) 
/opt/xchem-fragalysis-2/maxwin/BulkDock/SCRATCH/511018/C6777-P82/C6777-P82.minimised.mol

>  <scratch_subdir>  (1435) 
/opt/xchem-fragalysis-2/maxwin/BulkDock/SCRATCH/511018/C6777-P82

>  <fragmenstein_runtime>  (1435) 
5.6452109813690186

>  <fragmenstein_outcome>  (1435) 
too moved

>  <fragmenstein_mode>  (1435) 
expansion

>  <fragmenstein_error>  (1435) 


$$$$
C6778-P68
     RDKit          3D

 39 41  0  0  0  0  0  0  0  0999 V2000
   -9.2943  -38.1788   26.4229 C   0  0  0  0  0  0  0  0  0  0  0  0
   -8.9623  -36.9199   25.6907 C   0  0  0  0  0  0  0  0  0  0  0  0
   -8.6423  -37.1501   24.3191 C   0  0  0  0  0  0  0  0  0  0  0  0
   -8.7616  -36.1624   23.3654 C   0  0  0  0  0  0  0  0  0  0  0  0
   -9.3428  -34.9750   23.7502 C   0  0  0  0  0  0  0  0  0  0  0  0
   -9.5510  -34.7599   25.1248 C   0  0  0  0  0  0  0  0  0  0  0  0
  -10.7449  -33.7756   25.7902 S   0  0  0  0  0  0  0  0  0  0  0  0
   -9.5011  -33.6521   27.5799 C   0  0  0  0  0  0  0  0  0  0  0  0
   -9.3426  -32.0000   28.2325 N   0  0  0  0  0  0  0  0  0  0  0  0
   -9.9451  -30.4045   27.6228 C   0  0  0  0  0  0  0  0  0  0  0  0
  -10.5771  -30.5260   26.7598 O   0  0  0  0  0  0  0  0  0  0  0  0
   -9.5890  -28.7986   28.0731 N   0  0  0  0  0  0  0  0  0  0  0  0
  -10.1835  -27.2303   27.4368 C   0  0  0  0  0  0  0  0  0  0  0  0
  -10.0377  -25.2961   27.5174 C   0  0  0  0  0  0  0  0  0  0  0  0
  -10.9905  -24.7814   26.5111 O   0  0  0  0  0  0  0  0  0  0  0  0
  -10.0883  -24.0051   28.8836 C   0  0  0  0  0  0  0  0  0  0  0  0
   -8.9523  -24.6155   29.1407 C   0  0  0  0  0  0  0  0  0  0  0  0
   -8.3487  -25.2161   30.6160 C   0  0  0  0  0  0  0  0  0  0  0  0
   -8.8576  -25.0571   31.8516 N   0  0  0  0  0  0  0  0  0  0  0  0
   -9.8751  -24.2621   31.8842 C   0  0  0  0  0  0  0  0  0  0  0  0
  -10.4093  -23.7319   30.6567 C   0  0  0  0  0  0  0  0  0  0  0  0
   -8.9556  -34.8847   27.5192 N   0  0  0  0  0  0  0  0  0  0  0  0
   -9.1476  -35.5798   26.1626 C   0  0  0  0  0  0  0  0  0  0  0  0
   -8.3939  -38.7541   26.6359 H   0  0  0  0  0  0  0  0  0  0  0  0
   -9.9354  -38.8145   25.7979 H   0  0  0  0  0  0  0  0  0  0  0  0
   -9.9048  -37.9502   27.2911 H   0  0  0  0  0  0  0  0  0  0  0  0
   -8.3836  -38.1579   23.9933 H   0  0  0  0  0  0  0  0  0  0  0  0
   -8.5656  -36.3731   22.3186 H   0  0  0  0  0  0  0  0  0  0  0  0
   -9.7086  -34.2672   23.0123 H   0  0  0  0  0  0  0  0  0  0  0  0
   -8.8316  -31.8360   29.0873 H   0  0  0  0  0  0  0  0  0  0  0  0
   -8.9236  -28.8242   28.8394 H   0  0  0  0  0  0  0  0  0  0  0  0
  -10.1296  -27.3733   26.3406 H   0  0  0  0  0  0  0  0  0  0  0  0
  -11.2287  -27.5239   27.3622 H   0  0  0  0  0  0  0  0  0  0  0  0
   -9.1886  -24.9732   26.9175 H   0  0  0  0  0  0  0  0  0  0  0  0
  -11.7744  -24.5892   27.0659 H   0  0  0  0  0  0  0  0  0  0  0  0
   -8.3066  -23.8226   28.6192 H   0  0  0  0  0  0  0  0  0  0  0  0
   -7.6498  -26.0338   30.5391 H   0  0  0  0  0  0  0  0  0  0  0  0
  -10.1530  -23.8975   32.7969 H   0  0  0  0  0  0  0  0  0  0  0  0
  -11.0852  -22.8264   30.7910 H   0  0  0  0  0  0  0  0  0  0  0  0
  1  2  1  0
  2  3  2  0
  3  4  1  0
  4  5  2  0
  5  6  1  0
  6  7  1  0
  7  8  1  0
  8  9  1  0
  9 10  1  0
 10 11  2  0
 10 12  1  0
 12 13  1  0
 13 14  1  0
 14 15  1  0
 14 16  1  0
 16 17  2  0
 17 18  1  0
 18 19  2  0
 19 20  1  0
 20 21  2  0
  8 22  2  0
 22 23  1  0
 23  2  1  0
 23  6  2  0
 21 16  1  0
  1 24  1  0
  1 25  1  0
  1 26  1  0
  3 27  1  0
  4 28  1  0
  5 29  1  0
  9 30  1  0
 12 31  1  0
 13 32  1  0
 13 33  1  0
 14 34  1  0
 15 35  1  0
 17 36  1  0
 18 37  1  0
 20 38  1  0
 21 39  1  0
M  END
>  <Energy>  (1436) 
643.61380846323141

>  <compound_id>  (1436) 
6778

>  <target_id>  (1436) 
1

>  <reference_id>  (1436) 
68

>  <inspiration_ids>  (1436) 
[68, 82]

>  <energy_score>  (1436) 
572.6955789615333

>  <distance_score>  (1436) 
3.655059298682313

>  <path>  (1436) 
/opt/xchem-fragalysis-2/maxwin/BulkDock/SCRATCH/511018/C6778-P68/C6778-P68.minimised.mol

>  <scratch_subdir>  (1436) 
/opt/xchem-fragalysis-2/maxwin/BulkDock/SCRATCH/511018/C6778-P68

>  <fragmenstein_runtime>  (1436) 
10.399129629135132

>  <fragmenstein_outcome>  (1436) 
too moved

>  <fragmenstein_mode>  (1436) 
expansion

>  <fragmenstein_error>  (1436) 


$$$$
C6778-P82
     RDKit          3D

 39 41  0  0  0  0  0  0  0  0999 V2000
   -9.1236  -36.3331   25.5704 C   0  0  0  0  0  0  0  0  0  0  0  0
   -9.8787  -35.8336   24.3821 C   0  0  0  0  0  0  0  0  0  0  0  0
   -9.6212  -36.4463   23.1451 C   0  0  0  0  0  0  0  0  0  0  0  0
  -10.3526  -36.1328   22.0076 C   0  0  0  0  0  0  0  0  0  0  0  0
  -11.4249  -35.2559   22.0800 C   0  0  0  0  0  0  0  0  0  0  0  0
  -11.6674  -34.6354   23.3093 C   0  0  0  0  0  0  0  0  0  0  0  0
  -13.0057  -33.6564   23.7915 S   0  0  0  0  0  0  0  0  0  0  0  0
  -12.1386  -33.0944   25.1591 C   0  0  0  0  0  0  0  0  0  0  0  0
  -12.5544  -31.8875   25.7728 N   0  0  0  0  0  0  0  0  0  0  0  0
  -11.7748  -30.9181   26.7738 C   0  0  0  0  0  0  0  0  0  0  0  0
  -10.7474  -31.0365   27.2622 O   0  0  0  0  0  0  0  0  0  0  0  0
  -12.8693  -29.7825   26.9580 N   0  0  0  0  0  0  0  0  0  0  0  0
  -12.9022  -28.5922   27.9067 C   0  0  0  0  0  0  0  0  0  0  0  0
  -12.2069  -27.0881   27.7668 C   0  0  0  0  0  0  0  0  0  0  0  0
  -13.1484  -26.3357   26.9713 O   0  0  0  0  0  0  0  0  0  0  0  0
  -11.7817  -26.2413   29.0160 C   0  0  0  0  0  0  0  0  0  0  0  0
  -10.8956  -26.6955   29.9871 C   0  0  0  0  0  0  0  0  0  0  0  0
  -10.5063  -25.9143   31.0790 C   0  0  0  0  0  0  0  0  0  0  0  0
  -10.9670  -24.6855   31.3196 N   0  0  0  0  0  0  0  0  0  0  0  0
  -11.8193  -24.2208   30.3951 C   0  0  0  0  0  0  0  0  0  0  0  0
  -12.1848  -24.9214   29.2370 C   0  0  0  0  0  0  0  0  0  0  0  0
  -11.1170  -33.8865   25.4362 N   0  0  0  0  0  0  0  0  0  0  0  0
  -10.8502  -34.8066   24.4187 C   0  0  0  0  0  0  0  0  0  0  0  0
   -8.0699  -36.0585   25.4929 H   0  0  0  0  0  0  0  0  0  0  0  0
   -9.1911  -37.4253   25.6281 H   0  0  0  0  0  0  0  0  0  0  0  0
   -9.5580  -35.9438   26.4904 H   0  0  0  0  0  0  0  0  0  0  0  0
   -8.8336  -37.1953   23.0694 H   0  0  0  0  0  0  0  0  0  0  0  0
  -10.1193  -36.6239   21.0654 H   0  0  0  0  0  0  0  0  0  0  0  0
  -12.0569  -35.0724   21.2178 H   0  0  0  0  0  0  0  0  0  0  0  0
  -13.4006  -31.4496   25.4675 H   0  0  0  0  0  0  0  0  0  0  0  0
  -13.6291  -29.9359   26.3179 H   0  0  0  0  0  0  0  0  0  0  0  0
  -12.5815  -29.0104   28.8594 H   0  0  0  0  0  0  0  0  0  0  0  0
  -13.9816  -28.4279   27.9454 H   0  0  0  0  0  0  0  0  0  0  0  0
  -11.3182  -27.2073   27.1395 H   0  0  0  0  0  0  0  0  0  0  0  0
  -12.6372  -25.6028   26.5815 H   0  0  0  0  0  0  0  0  0  0  0  0
  -10.4704  -27.6727   29.9595 H   0  0  0  0  0  0  0  0  0  0  0  0
   -9.8002  -26.2942   31.8083 H   0  0  0  0  0  0  0  0  0  0  0  0
  -12.2136  -23.2252   30.5769 H   0  0  0  0  0  0  0  0  0  0  0  0
  -12.8077  -24.4174   28.5138 H   0  0  0  0  0  0  0  0  0  0  0  0
  1  2  1  0
  2  3  2  0
  3  4  1  0
  4  5  2  0
  5  6  1  0
  6  7  1  0
  7  8  1  0
  8  9  1  0
  9 10  1  0
 10 11  2  0
 10 12  1  0
 12 13  1  0
 13 14  1  0
 14 15  1  0
 14 16  1  0
 16 17  2  0
 17 18  1  0
 18 19  2  0
 19 20  1  0
 20 21  2  0
  8 22  2  0
 22 23  1  0
 23  2  1  0
 23  6  2  0
 21 16  1  0
  1 24  1  0
  1 25  1  0
  1 26  1  0
  3 27  1  0
  4 28  1  0
  5 29  1  0
  9 30  1  0
 12 31  1  0
 13 32  1  0
 13 33  1  0
 14 34  1  0
 15 35  1  0
 17 36  1  0
 18 37  1  0
 20 38  1  0
 21 39  1  0
M  END
>  <Energy>  (1437) 
42.44905805535511

>  <compound_id>  (1437) 
6778

>  <target_id>  (1437) 
1

>  <reference_id>  (1437) 
82

>  <inspiration_ids>  (1437) 
[68, 82]

>  <energy_score>  (1437) 
-12.492248606157546

>  <distance_score>  (1437) 
3.8464301612820977

>  <path>  (1437) 
/opt/xchem-fragalysis-2/maxwin/BulkDock/SCRATCH/511018/C6778-P82/C6778-P82.minimised.mol

>  <scratch_subdir>  (1437) 
/opt/xchem-fragalysis-2/maxwin/BulkDock/SCRATCH/511018/C6778-P82

>  <fragmenstein_runtime>  (1437) 
4.090849876403809

>  <fragmenstein_outcome>  (1437) 
too moved

>  <fragmenstein_mode>  (1437) 
expansion

>  <fragmenstein_error>  (1437) 


$$$$
C6779-P68
     RDKit          3D

 40 42  0  0  0  0  0  0  0  0999 V2000
   -6.0397  -33.1354   26.7983 C   0  0  0  0  0  0  0  0  0  0  0  0
   -8.0741  -33.1512   26.9563 C   0  0  0  0  0  0  0  0  0  0  0  0
   -9.0967  -31.6474   28.0405 N   0  0  0  0  0  0  0  0  0  0  0  0
   -9.5089  -29.6936   27.7381 C   0  0  0  0  0  0  0  0  0  0  0  0
  -10.4890  -28.0140   27.9692 C   0  0  0  0  0  0  0  0  0  0  0  0
   -9.8006  -25.8620   28.3282 S   0  0  0  0  0  0  0  0  0  0  0  0
   -9.9340  -24.4702   28.7257 O   0  0  0  0  0  0  0  0  0  0  0  0
   -9.6642  -25.6223   26.8804 O   0  0  0  0  0  0  0  0  0  0  0  0
   -8.5233  -26.4409   30.2907 C   0  0  0  0  0  0  0  0  0  0  0  0
   -9.2596  -26.2949   31.5601 C   0  0  0  0  0  0  0  0  0  0  0  0
   -9.8689  -25.4551   32.6719 C   0  0  0  0  0  0  0  0  0  0  0  0
   -9.5880  -24.2360   32.7848 N   0  0  0  0  0  0  0  0  0  0  0  0
   -8.4261  -24.5158   32.4195 C   0  0  0  0  0  0  0  0  0  0  0  0
   -8.0296  -25.3683   30.9190 C   0  0  0  0  0  0  0  0  0  0  0  0
   -9.0269  -34.4304   26.1953 C   0  0  0  0  0  0  0  0  0  0  0  0
   -9.6312  -34.1732   25.0312 N   0  0  0  0  0  0  0  0  0  0  0  0
  -10.1137  -35.3007   24.4151 C   0  0  0  0  0  0  0  0  0  0  0  0
  -10.7439  -35.3498   23.1590 C   0  0  0  0  0  0  0  0  0  0  0  0
  -11.1727  -36.5779   22.6530 C   0  0  0  0  0  0  0  0  0  0  0  0
  -10.9768  -37.7445   23.3843 C   0  0  0  0  0  0  0  0  0  0  0  0
  -10.3541  -37.7133   24.6365 C   0  0  0  0  0  0  0  0  0  0  0  0
   -9.9329  -36.4718   25.1329 C   0  0  0  0  0  0  0  0  0  0  0  0
   -9.1647  -36.0851   26.6113 S   0  0  0  0  0  0  0  0  0  0  0  0
   -5.4561  -32.1655   26.7819 H   0  0  0  0  0  0  0  0  0  0  0  0
   -5.3291  -33.5290   27.5606 H   0  0  0  0  0  0  0  0  0  0  0  0
   -5.7941  -33.4438   25.7475 H   0  0  0  0  0  0  0  0  0  0  0  0
   -8.0306  -33.0100   25.8286 H   0  0  0  0  0  0  0  0  0  0  0  0
   -9.9834  -32.0355   27.7915 H   0  0  0  0  0  0  0  0  0  0  0  0
   -9.0021  -29.3083   28.6713 H   0  0  0  0  0  0  0  0  0  0  0  0
   -8.8613  -29.3133   26.9662 H   0  0  0  0  0  0  0  0  0  0  0  0
  -10.8725  -27.8625   26.9495 H   0  0  0  0  0  0  0  0  0  0  0  0
  -11.3457  -28.1272   28.6148 H   0  0  0  0  0  0  0  0  0  0  0  0
   -9.7140  -24.8955   31.3153 H   0  0  0  0  0  0  0  0  0  0  0  0
  -10.6355  -26.0680   33.1333 H   0  0  0  0  0  0  0  0  0  0  0  0
   -7.6205  -24.2281   33.0955 H   0  0  0  0  0  0  0  0  0  0  0  0
   -8.3275  -24.6096   30.2005 H   0  0  0  0  0  0  0  0  0  0  0  0
  -10.8829  -34.4354   22.5912 H   0  0  0  0  0  0  0  0  0  0  0  0
  -11.6547  -36.6203   21.6790 H   0  0  0  0  0  0  0  0  0  0  0  0
  -11.3087  -38.6974   22.9767 H   0  0  0  0  0  0  0  0  0  0  0  0
  -10.1971  -38.6254   25.2048 H   0  0  0  0  0  0  0  0  0  0  0  0
  1  2  1  0
  2  3  1  0
  3  4  1  0
  4  5  1  0
  5  6  1  0
  6  7  2  0
  6  8  2  0
  6  9  1  0
  9 10  2  0
 10 11  1  0
 11 12  2  0
 12 13  1  0
 13 14  2  0
  2 15  1  0
 15 16  2  0
 16 17  1  0
 17 18  2  0
 18 19  1  0
 19 20  2  0
 20 21  1  0
 21 22  2  0
 22 23  1  0
 14  9  1  0
 23 15  1  0
 22 17  1  0
  1 24  1  0
  1 25  1  0
  1 26  1  0
  2 27  1  0
  3 28  1  0
  4 29  1  0
  4 30  1  0
  5 31  1  0
  5 32  1  0
 10 33  1  0
 11 34  1  0
 13 35  1  0
 14 36  1  0
 18 37  1  0
 19 38  1  0
 20 39  1  0
 21 40  1  0
M  END
>  <Energy>  (1438) 
1160.7482771638406

>  <compound_id>  (1438) 
6779

>  <target_id>  (1438) 
1

>  <reference_id>  (1438) 
68

>  <inspiration_ids>  (1438) 
[68, 82]

>  <energy_score>  (1438) 
1023.4956405157388

>  <distance_score>  (1438) 
3.748741587660765

>  <path>  (1438) 
/opt/xchem-fragalysis-2/maxwin/BulkDock/SCRATCH/511018/C6779-P68/C6779-P68.minimised.mol

>  <scratch_subdir>  (1438) 
/opt/xchem-fragalysis-2/maxwin/BulkDock/SCRATCH/511018/C6779-P68

>  <fragmenstein_runtime>  (1438) 
8.011216163635254

>  <fragmenstein_outcome>  (1438) 
too moved

>  <fragmenstein_mode>  (1438) 
expansion

>  <fragmenstein_error>  (1438) 


$$$$
C6779-P82
     RDKit          3D

 40 42  0  0  0  0  0  0  0  0999 V2000
   -6.8162  -30.1858   23.1127 C   0  0  0  0  0  0  0  0  0  0  0  0
   -8.3178  -30.3845   23.4405 C   0  0  0  0  0  0  0  0  0  0  0  0
   -8.7406  -29.9351   24.8580 N   0  0  0  0  0  0  0  0  0  0  0  0
   -9.6212  -28.8799   25.5115 C   0  0  0  0  0  0  0  0  0  0  0  0
  -10.9980  -28.1687   25.1823 C   0  0  0  0  0  0  0  0  0  0  0  0
  -11.7656  -26.7178   25.8636 S   0  0  0  0  0  0  0  0  0  0  0  0
  -11.4783  -25.6470   24.9231 O   0  0  0  0  0  0  0  0  0  0  0  0
  -13.1629  -27.0733   26.0963 O   0  0  0  0  0  0  0  0  0  0  0  0
  -11.2858  -26.0540   27.4325 C   0  0  0  0  0  0  0  0  0  0  0  0
  -11.3361  -26.7886   28.6044 C   0  0  0  0  0  0  0  0  0  0  0  0
  -11.0387  -26.1447   29.7973 C   0  0  0  0  0  0  0  0  0  0  0  0
  -10.8760  -24.8147   29.9060 N   0  0  0  0  0  0  0  0  0  0  0  0
  -11.0210  -24.1012   28.7744 C   0  0  0  0  0  0  0  0  0  0  0  0
  -11.1664  -24.6671   27.5262 C   0  0  0  0  0  0  0  0  0  0  0  0
   -8.5663  -31.9608   23.2031 C   0  0  0  0  0  0  0  0  0  0  0  0
   -9.3394  -32.7013   23.9905 N   0  0  0  0  0  0  0  0  0  0  0  0
   -9.4574  -33.9900   23.5037 C   0  0  0  0  0  0  0  0  0  0  0  0
  -10.1865  -35.0334   24.1110 C   0  0  0  0  0  0  0  0  0  0  0  0
  -10.2267  -36.2933   23.5099 C   0  0  0  0  0  0  0  0  0  0  0  0
   -9.5505  -36.5208   22.3157 C   0  0  0  0  0  0  0  0  0  0  0  0
   -8.8183  -35.5015   21.6972 C   0  0  0  0  0  0  0  0  0  0  0  0
   -8.7852  -34.2398   22.3118 C   0  0  0  0  0  0  0  0  0  0  0  0
   -7.9979  -32.8012   21.8027 S   0  0  0  0  0  0  0  0  0  0  0  0
   -6.3496  -29.4804   23.7934 H   0  0  0  0  0  0  0  0  0  0  0  0
   -6.2140  -31.0983   23.1796 H   0  0  0  0  0  0  0  0  0  0  0  0
   -6.6982  -29.8213   22.0871 H   0  0  0  0  0  0  0  0  0  0  0  0
   -8.9014  -29.8415   22.6934 H   0  0  0  0  0  0  0  0  0  0  0  0
   -8.0023  -30.2486   25.4877 H   0  0  0  0  0  0  0  0  0  0  0  0
   -9.9752  -29.5488   26.2947 H   0  0  0  0  0  0  0  0  0  0  0  0
   -8.9642  -28.1372   25.9482 H   0  0  0  0  0  0  0  0  0  0  0  0
  -11.0716  -28.0183   24.1034 H   0  0  0  0  0  0  0  0  0  0  0  0
  -11.7858  -28.8701   25.4819 H   0  0  0  0  0  0  0  0  0  0  0  0
  -11.6235  -27.8291   28.6047 H   0  0  0  0  0  0  0  0  0  0  0  0
  -10.9415  -26.6898   30.7296 H   0  0  0  0  0  0  0  0  0  0  0  0
  -11.0135  -23.0212   28.8900 H   0  0  0  0  0  0  0  0  0  0  0  0
  -11.2733  -24.0173   26.6631 H   0  0  0  0  0  0  0  0  0  0  0  0
  -10.7132  -34.8440   25.0402 H   0  0  0  0  0  0  0  0  0  0  0  0
  -10.7914  -37.0956   23.9774 H   0  0  0  0  0  0  0  0  0  0  0  0
   -9.5886  -37.5042   21.8524 H   0  0  0  0  0  0  0  0  0  0  0  0
   -8.2899  -35.6768   20.7652 H   0  0  0  0  0  0  0  0  0  0  0  0
  1  2  1  0
  2  3  1  0
  3  4  1  0
  4  5  1  0
  5  6  1  0
  6  7  2  0
  6  8  2  0
  6  9  1  0
  9 10  2  0
 10 11  1  0
 11 12  2  0
 12 13  1  0
 13 14  2  0
  2 15  1  0
 15 16  2  0
 16 17  1  0
 17 18  2  0
 18 19  1  0
 19 20  2  0
 20 21  1  0
 21 22  2  0
 22 23  1  0
 14  9  1  0
 23 15  1  0
 22 17  1  0
  1 24  1  0
  1 25  1  0
  1 26  1  0
  2 27  1  0
  3 28  1  0
  4 29  1  0
  4 30  1  0
  5 31  1  0
  5 32  1  0
 10 33  1  0
 11 34  1  0
 13 35  1  0
 14 36  1  0
 18 37  1  0
 19 38  1  0
 20 39  1  0
 21 40  1  0
M  END
>  <Energy>  (1439) 
141.84016207211877

>  <compound_id>  (1439) 
6779

>  <target_id>  (1439) 
1

>  <reference_id>  (1439) 
82

>  <inspiration_ids>  (1439) 
[68, 82]

>  <energy_score>  (1439) 
4.587525424039541

>  <distance_score>  (1439) 
3.8411786343730165

>  <path>  (1439) 
/opt/xchem-fragalysis-2/maxwin/BulkDock/SCRATCH/511018/C6779-P82/C6779-P82.minimised.mol

>  <scratch_subdir>  (1439) 
/opt/xchem-fragalysis-2/maxwin/BulkDock/SCRATCH/511018/C6779-P82

>  <fragmenstein_runtime>  (1439) 
4.578089237213135

>  <fragmenstein_outcome>  (1439) 
too moved

>  <fragmenstein_mode>  (1439) 
expansion

>  <fragmenstein_error>  (1439) 


$$$$
C6780-P68
     RDKit          3D

 44 47  0  0  0  0  0  0  0  0999 V2000
   -9.5020  -32.5062   31.1179 C   0  0  0  0  0  0  0  0  0  0  0  0
   -9.0294  -32.8431   29.4733 C   0  0  0  0  0  0  0  0  0  0  0  0
   -8.3515  -34.1292   29.0489 N   0  0  0  0  0  0  0  0  0  0  0  0
   -8.6889  -34.4116   27.6443 N   0  0  0  0  0  0  0  0  0  0  0  0
   -8.9033  -35.5706   26.7983 C   0  0  0  0  0  0  0  0  0  0  0  0
   -9.2962  -36.7884   27.0697 N   0  0  0  0  0  0  0  0  0  0  0  0
   -9.5614  -37.5115   25.9107 C   0  0  0  0  0  0  0  0  0  0  0  0
  -10.0450  -38.8323   25.8632 C   0  0  0  0  0  0  0  0  0  0  0  0
  -10.3238  -39.4285   24.6287 C   0  0  0  0  0  0  0  0  0  0  0  0
  -10.1146  -38.7347   23.4416 C   0  0  0  0  0  0  0  0  0  0  0  0
   -9.6142  -37.4339   23.4587 C   0  0  0  0  0  0  0  0  0  0  0  0
   -9.3502  -36.8469   24.7067 C   0  0  0  0  0  0  0  0  0  0  0  0
   -8.7564  -35.2850   25.0287 S   0  0  0  0  0  0  0  0  0  0  0  0
   -9.6763  -33.5812   27.3340 C   0  0  0  0  0  0  0  0  0  0  0  0
  -10.5267  -33.7635   26.4133 O   0  0  0  0  0  0  0  0  0  0  0  0
   -9.5103  -31.8921   28.2601 C   0  0  0  0  0  0  0  0  0  0  0  0
   -9.4948  -30.1714   28.0394 C   0  0  0  0  0  0  0  0  0  0  0  0
  -10.1512  -28.9403   27.3337 C   0  0  0  0  0  0  0  0  0  0  0  0
   -8.4728  -29.1381   29.1751 N   0  0  0  0  0  0  0  0  0  0  0  0
   -9.2148  -28.6867   30.1505 N   0  0  0  0  0  0  0  0  0  0  0  0
   -9.3228  -27.5198   30.6814 C   0  0  0  0  0  0  0  0  0  0  0  0
   -8.7174  -26.5218   30.5009 O   0  0  0  0  0  0  0  0  0  0  0  0
  -10.9228  -27.8893   31.7999 C   0  0  0  0  0  0  0  0  0  0  0  0
  -11.8383  -28.8784   31.5480 C   0  0  0  0  0  0  0  0  0  0  0  0
  -12.6918  -29.6060   32.4235 C   0  0  0  0  0  0  0  0  0  0  0  0
  -12.9148  -29.2052   33.6502 N   0  0  0  0  0  0  0  0  0  0  0  0
  -12.4264  -27.9879   33.8323 C   0  0  0  0  0  0  0  0  0  0  0  0
  -11.5348  -27.3300   32.8906 C   0  0  0  0  0  0  0  0  0  0  0  0
  -10.5761  -32.6253   31.2788 H   0  0  0  0  0  0  0  0  0  0  0  0
   -8.9988  -33.2623   31.7320 H   0  0  0  0  0  0  0  0  0  0  0  0
   -9.3037  -31.5096   31.4992 H   0  0  0  0  0  0  0  0  0  0  0  0
  -10.1951  -39.3784   26.7900 H   0  0  0  0  0  0  0  0  0  0  0  0
  -10.7002  -40.4486   24.6024 H   0  0  0  0  0  0  0  0  0  0  0  0
  -10.3327  -39.2147   22.4902 H   0  0  0  0  0  0  0  0  0  0  0  0
   -9.4406  -36.8902   22.5354 H   0  0  0  0  0  0  0  0  0  0  0  0
  -11.2040  -28.9529   27.3712 H   0  0  0  0  0  0  0  0  0  0  0  0
  -10.0134  -28.0265   27.9156 H   0  0  0  0  0  0  0  0  0  0  0  0
   -9.8443  -28.5985   26.3738 H   0  0  0  0  0  0  0  0  0  0  0  0
   -7.8293  -29.7991   29.6508 H   0  0  0  0  0  0  0  0  0  0  0  0
   -9.8107  -29.2772   30.6041 H   0  0  0  0  0  0  0  0  0  0  0  0
  -12.1196  -28.8395   30.5238 H   0  0  0  0  0  0  0  0  0  0  0  0
  -13.2917  -30.4473   32.0993 H   0  0  0  0  0  0  0  0  0  0  0  0
  -12.6827  -27.5504   34.7920 H   0  0  0  0  0  0  0  0  0  0  0  0
  -10.9846  -26.4657   33.1558 H   0  0  0  0  0  0  0  0  0  0  0  0
  1  2  1  0
  2  3  2  0
  3  4  1  0
  4  5  1  0
  5  6  2  0
  6  7  1  0
  7  8  2  0
  8  9  1  0
  9 10  2  0
 10 11  1  0
 11 12  2  0
 12 13  1  0
  4 14  1  0
 14 15  2  0
 14 16  1  0
 16 17  2  3
 17 18  1  0
 17 19  1  0
 19 20  1  0
 20 21  1  0
 21 22  2  0
 21 23  1  0
 23 24  2  0
 24 25  1  0
 25 26  2  0
 26 27  1  0
 27 28  2  0
 16  2  1  0
 28 23  1  0
 13  5  1  0
 12  7  1  0
  1 29  1  0
  1 30  1  0
  1 31  1  0
  8 32  1  0
  9 33  1  0
 10 34  1  0
 11 35  1  0
 18 36  1  0
 18 37  1  0
 18 38  1  0
 19 39  1  0
 20 40  1  0
 24 41  1  0
 25 42  1  0
 27 43  1  0
 28 44  1  0
M  END
>  <Energy>  (1440) 
576.51358286115897

>  <compound_id>  (1440) 
6780

>  <target_id>  (1440) 
1

>  <reference_id>  (1440) 
68

>  <inspiration_ids>  (1440) 
[68, 82]

>  <energy_score>  (1440) 
367.14127510372487

>  <distance_score>  (1440) 
4.244132064374122

>  <path>  (1440) 
/opt/xchem-fragalysis-2/maxwin/BulkDock/SCRATCH/511018/C6780-P68/C6780-P68.minimised.mol

>  <scratch_subdir>  (1440) 
/opt/xchem-fragalysis-2/maxwin/BulkDock/SCRATCH/511018/C6780-P68

>  <fragmenstein_runtime>  (1440) 
12.670732498168945

>  <fragmenstein_outcome>  (1440) 
too moved

>  <fragmenstein_mode>  (1440) 
expansion

>  <fragmenstein_error>  (1440) 


$$$$
C6780-P82
     RDKit          3D

 44 47  0  0  0  0  0  0  0  0999 V2000
  -15.0734  -31.7576   27.6227 C   0  0  0  0  0  0  0  0  0  0  0  0
  -13.8175  -31.9585   26.8472 C   0  0  0  0  0  0  0  0  0  0  0  0
  -13.5438  -33.0511   26.1527 N   0  0  0  0  0  0  0  0  0  0  0  0
  -12.2644  -32.8616   25.5772 N   0  0  0  0  0  0  0  0  0  0  0  0
  -11.4521  -33.8930   25.0036 C   0  0  0  0  0  0  0  0  0  0  0  0
  -11.5214  -35.1905   25.2181 N   0  0  0  0  0  0  0  0  0  0  0  0
  -10.5375  -35.8530   24.4956 C   0  0  0  0  0  0  0  0  0  0  0  0
  -10.2780  -37.2275   24.5476 C   0  0  0  0  0  0  0  0  0  0  0  0
   -9.2986  -37.7563   23.7107 C   0  0  0  0  0  0  0  0  0  0  0  0
   -8.5822  -36.9430   22.8361 C   0  0  0  0  0  0  0  0  0  0  0  0
   -8.8008  -35.5735   22.7860 C   0  0  0  0  0  0  0  0  0  0  0  0
   -9.7793  -35.0620   23.6386 C   0  0  0  0  0  0  0  0  0  0  0  0
  -10.2496  -33.4473   23.8448 S   0  0  0  0  0  0  0  0  0  0  0  0
  -11.6721  -31.7324   26.1428 C   0  0  0  0  0  0  0  0  0  0  0  0
  -10.5109  -31.3761   26.2025 O   0  0  0  0  0  0  0  0  0  0  0  0
  -12.7636  -30.9196   26.7553 C   0  0  0  0  0  0  0  0  0  0  0  0
  -12.5463  -29.6219   27.1323 C   0  0  0  0  0  0  0  0  0  0  0  0
  -11.7181  -28.7035   26.2208 C   0  0  0  0  0  0  0  0  0  0  0  0
  -13.1477  -28.8919   28.1558 N   0  0  0  0  0  0  0  0  0  0  0  0
  -12.3894  -27.9113   28.8950 N   0  0  0  0  0  0  0  0  0  0  0  0
  -12.2163  -26.3626   28.6587 C   0  0  0  0  0  0  0  0  0  0  0  0
  -12.6025  -25.6796   27.7856 O   0  0  0  0  0  0  0  0  0  0  0  0
  -11.5128  -25.7246   29.8403 C   0  0  0  0  0  0  0  0  0  0  0  0
  -12.1422  -24.7132   30.5741 C   0  0  0  0  0  0  0  0  0  0  0  0
  -11.5987  -24.2911   31.7770 C   0  0  0  0  0  0  0  0  0  0  0  0
  -10.4394  -24.7593   32.2604 N   0  0  0  0  0  0  0  0  0  0  0  0
   -9.8172  -25.6858   31.5082 C   0  0  0  0  0  0  0  0  0  0  0  0
  -10.3104  -26.2014   30.3177 C   0  0  0  0  0  0  0  0  0  0  0  0
  -15.7868  -32.5541   27.3950 H   0  0  0  0  0  0  0  0  0  0  0  0
  -14.8459  -31.7781   28.6919 H   0  0  0  0  0  0  0  0  0  0  0  0
  -15.5232  -30.7951   27.3653 H   0  0  0  0  0  0  0  0  0  0  0  0
  -10.8501  -37.8641   25.2138 H   0  0  0  0  0  0  0  0  0  0  0  0
   -9.0965  -38.8251   23.7341 H   0  0  0  0  0  0  0  0  0  0  0  0
   -7.8223  -37.3836   22.1928 H   0  0  0  0  0  0  0  0  0  0  0  0
   -8.2216  -34.9287   22.1308 H   0  0  0  0  0  0  0  0  0  0  0  0
  -10.6951  -29.0340   26.0584 H   0  0  0  0  0  0  0  0  0  0  0  0
  -12.2408  -28.5899   25.2647 H   0  0  0  0  0  0  0  0  0  0  0  0
  -11.6283  -27.6798   26.5809 H   0  0  0  0  0  0  0  0  0  0  0  0
  -13.7131  -29.4867   28.7659 H   0  0  0  0  0  0  0  0  0  0  0  0
  -11.8563  -28.1925   29.7118 H   0  0  0  0  0  0  0  0  0  0  0  0
  -13.0906  -24.3061   30.2601 H   0  0  0  0  0  0  0  0  0  0  0  0
  -12.1049  -23.5511   32.3898 H   0  0  0  0  0  0  0  0  0  0  0  0
   -8.8654  -26.0207   31.9085 H   0  0  0  0  0  0  0  0  0  0  0  0
   -9.7519  -26.9633   29.7989 H   0  0  0  0  0  0  0  0  0  0  0  0
  1  2  1  0
  2  3  2  0
  3  4  1  0
  4  5  1  0
  5  6  2  0
  6  7  1  0
  7  8  2  0
  8  9  1  0
  9 10  2  0
 10 11  1  0
 11 12  2  0
 12 13  1  0
  4 14  1  0
 14 15  2  0
 14 16  1  0
 16 17  2  3
 17 18  1  0
 17 19  1  0
 19 20  1  0
 20 21  1  0
 21 22  2  0
 21 23  1  0
 23 24  2  0
 24 25  1  0
 25 26  2  0
 26 27  1  0
 27 28  2  0
 16  2  1  0
 28 23  1  0
 13  5  1  0
 12  7  1  0
  1 29  1  0
  1 30  1  0
  1 31  1  0
  8 32  1  0
  9 33  1  0
 10 34  1  0
 11 35  1  0
 18 36  1  0
 18 37  1  0
 18 38  1  0
 19 39  1  0
 20 40  1  0
 24 41  1  0
 25 42  1  0
 27 43  1  0
 28 44  1  0
M  END
>  <Energy>  (1441) 
182.25484978756057

>  <compound_id>  (1441) 
6780

>  <target_id>  (1441) 
1

>  <reference_id>  (1441) 
82

>  <inspiration_ids>  (1441) 
[68, 82]

>  <energy_score>  (1441) 
-35.74166785107997

>  <distance_score>  (1441) 
3.3671089823161267

>  <path>  (1441) 
/opt/xchem-fragalysis-2/maxwin/BulkDock/SCRATCH/511018/C6780-P82/C6780-P82.minimised.mol

>  <scratch_subdir>  (1441) 
/opt/xchem-fragalysis-2/maxwin/BulkDock/SCRATCH/511018/C6780-P82

>  <fragmenstein_runtime>  (1441) 
8.230210781097412

>  <fragmenstein_outcome>  (1441) 
too moved

>  <fragmenstein_mode>  (1441) 
expansion

>  <fragmenstein_error>  (1441) 


$$$$
C6781-P68
     RDKit          3D

 44 47  0  0  0  0  0  0  0  0999 V2000
   -9.7377  -27.6699   25.1564 C   0  0  0  0  0  0  0  0  0  0  0  0
   -8.0415  -28.6288   25.3500 C   0  0  0  0  0  0  0  0  0  0  0  0
   -9.4727  -28.7780   26.6534 N   0  0  0  0  0  0  0  0  0  0  0  0
   -9.7479  -27.3458   27.7703 N   0  0  0  0  0  0  0  0  0  0  0  0
   -9.7776  -25.6163   27.4198 C   0  0  0  0  0  0  0  0  0  0  0  0
   -9.7304  -25.0287   26.3395 O   0  0  0  0  0  0  0  0  0  0  0  0
   -9.6940  -24.4609   28.7264 C   0  0  0  0  0  0  0  0  0  0  0  0
   -8.7159  -24.7657   30.1715 C   0  0  0  0  0  0  0  0  0  0  0  0
   -9.6515  -24.3057   31.4397 C   0  0  0  0  0  0  0  0  0  0  0  0
  -10.8193  -23.3398   31.1998 N   0  0  0  0  0  0  0  0  0  0  0  0
  -10.9034  -22.5212   29.8084 C   0  0  0  0  0  0  0  0  0  0  0  0
  -10.4377  -23.1670   28.5683 C   0  0  0  0  0  0  0  0  0  0  0  0
   -7.7762  -29.9557   24.0296 C   0  0  0  0  0  0  0  0  0  0  0  0
   -8.5596  -31.7860   24.1193 C   0  0  0  0  0  0  0  0  0  0  0  0
   -8.1226  -32.7722   24.7727 O   0  0  0  0  0  0  0  0  0  0  0  0
   -9.7152  -31.8846   23.3535 N   0  0  0  0  0  0  0  0  0  0  0  0
  -10.3069  -33.1055   23.0686 C   0  0  0  0  0  0  0  0  0  0  0  0
  -10.0910  -34.2310   23.7076 N   0  0  0  0  0  0  0  0  0  0  0  0
  -10.7044  -35.2751   23.0626 C   0  0  0  0  0  0  0  0  0  0  0  0
  -10.6429  -36.6262   23.4499 C   0  0  0  0  0  0  0  0  0  0  0  0
  -11.3131  -37.5859   22.6908 C   0  0  0  0  0  0  0  0  0  0  0  0
  -12.0324  -37.2121   21.5589 C   0  0  0  0  0  0  0  0  0  0  0  0
  -12.1066  -35.8747   21.1568 C   0  0  0  0  0  0  0  0  0  0  0  0
  -11.4354  -34.9181   21.9299 C   0  0  0  0  0  0  0  0  0  0  0  0
  -11.3442  -33.2090   21.7186 S   0  0  0  0  0  0  0  0  0  0  0  0
   -9.8649  -30.7207   22.7138 N   0  0  0  0  0  0  0  0  0  0  0  0
   -8.7193  -29.8337   23.0773 C   0  0  0  0  0  0  0  0  0  0  0  0
   -8.1309  -28.6287   22.6356 C   0  0  0  0  0  0  0  0  0  0  0  0
   -6.7986  -28.2957   22.7467 F   0  0  0  0  0  0  0  0  0  0  0  0
   -8.7791  -27.5699   23.0806 F   0  0  0  0  0  0  0  0  0  0  0  0
   -8.4304  -28.8396   21.4187 F   0  0  0  0  0  0  0  0  0  0  0  0
   -9.5308  -26.6765   25.4492 H   0  0  0  0  0  0  0  0  0  0  0  0
  -10.6704  -27.7646   25.7792 H   0  0  0  0  0  0  0  0  0  0  0  0
  -10.3940  -27.6071   24.3429 H   0  0  0  0  0  0  0  0  0  0  0  0
   -9.2303  -29.5231   27.2846 H   0  0  0  0  0  0  0  0  0  0  0  0
   -9.8885  -27.5043   28.7647 H   0  0  0  0  0  0  0  0  0  0  0  0
   -8.1814  -25.6985   30.4398 H   0  0  0  0  0  0  0  0  0  0  0  0
   -9.4999  -24.6669   32.4362 H   0  0  0  0  0  0  0  0  0  0  0  0
  -11.6165  -21.7019   29.8355 H   0  0  0  0  0  0  0  0  0  0  0  0
  -10.9526  -22.9316   27.6424 H   0  0  0  0  0  0  0  0  0  0  0  0
  -10.0681  -36.9081   24.3269 H   0  0  0  0  0  0  0  0  0  0  0  0
  -11.2645  -38.6324   22.9831 H   0  0  0  0  0  0  0  0  0  0  0  0
  -12.5448  -37.9737   20.9737 H   0  0  0  0  0  0  0  0  0  0  0  0
  -12.6679  -35.5888   20.2725 H   0  0  0  0  0  0  0  0  0  0  0  0
  1  2  1  0
  2  3  1  0
  3  4  1  0
  4  5  1  0
  5  6  2  0
  5  7  1  0
  7  8  2  0
  8  9  1  0
  9 10  2  0
 10 11  1  0
 11 12  2  0
  2 13  2  3
 13 14  1  0
 14 15  2  0
 14 16  1  0
 16 17  1  0
 17 18  2  0
 18 19  1  0
 19 20  2  0
 20 21  1  0
 21 22  2  0
 22 23  1  0
 23 24  2  0
 24 25  1  0
 16 26  1  0
 26 27  2  0
 27 28  1  0
 28 29  1  0
 28 30  1  0
 28 31  1  0
 12  7  1  0
 27 13  1  0
 25 17  1  0
 24 19  1  0
  1 32  1  0
  1 33  1  0
  1 34  1  0
  3 35  1  0
  4 36  1  0
  8 37  1  0
  9 38  1  0
 11 39  1  0
 12 40  1  0
 20 41  1  0
 21 42  1  0
 22 43  1  0
 23 44  1  0
M  END
>  <Energy>  (1442) 
986.7645080653898

>  <compound_id>  (1442) 
6781

>  <target_id>  (1442) 
1

>  <reference_id>  (1442) 
68

>  <inspiration_ids>  (1442) 
[68, 82]

>  <energy_score>  (1442) 
715.200651689516

>  <distance_score>  (1442) 
3.95377367175064

>  <path>  (1442) 
/opt/xchem-fragalysis-2/maxwin/BulkDock/SCRATCH/511018/C6781-P68/C6781-P68.minimised.mol

>  <scratch_subdir>  (1442) 
/opt/xchem-fragalysis-2/maxwin/BulkDock/SCRATCH/511018/C6781-P68

>  <fragmenstein_runtime>  (1442) 
10.519597053527832

>  <fragmenstein_outcome>  (1442) 
too moved

>  <fragmenstein_mode>  (1442) 
expansion

>  <fragmenstein_error>  (1442) 


$$$$
C6781-P82
     RDKit          3D

 44 47  0  0  0  0  0  0  0  0999 V2000
   -8.7492  -29.7622   25.3650 C   0  0  0  0  0  0  0  0  0  0  0  0
   -9.4142  -31.1072   25.5977 C   0  0  0  0  0  0  0  0  0  0  0  0
  -10.6522  -31.0139   26.3762 N   0  0  0  0  0  0  0  0  0  0  0  0
  -11.3245  -29.7655   26.5240 N   0  0  0  0  0  0  0  0  0  0  0  0
  -12.3276  -29.3418   27.4587 C   0  0  0  0  0  0  0  0  0  0  0  0
  -12.9157  -29.9487   28.3031 O   0  0  0  0  0  0  0  0  0  0  0  0
  -12.5378  -27.8706   27.3494 C   0  0  0  0  0  0  0  0  0  0  0  0
  -13.2017  -27.3317   26.2568 C   0  0  0  0  0  0  0  0  0  0  0  0
  -13.2588  -25.9549   26.1765 C   0  0  0  0  0  0  0  0  0  0  0  0
  -12.7083  -25.1267   27.0868 N   0  0  0  0  0  0  0  0  0  0  0  0
  -12.0904  -25.6696   28.1527 C   0  0  0  0  0  0  0  0  0  0  0  0
  -11.9703  -27.0323   28.3199 C   0  0  0  0  0  0  0  0  0  0  0  0
   -9.1229  -32.1420   24.7013 C   0  0  0  0  0  0  0  0  0  0  0  0
   -9.9751  -33.3943   24.5428 C   0  0  0  0  0  0  0  0  0  0  0  0
  -11.0425  -33.6066   25.0894 O   0  0  0  0  0  0  0  0  0  0  0  0
   -9.2744  -34.1478   23.6101 N   0  0  0  0  0  0  0  0  0  0  0  0
   -9.5456  -35.4795   23.4000 C   0  0  0  0  0  0  0  0  0  0  0  0
  -10.3598  -36.2166   24.1119 N   0  0  0  0  0  0  0  0  0  0  0  0
  -10.3721  -37.5005   23.6208 C   0  0  0  0  0  0  0  0  0  0  0  0
  -11.1444  -38.5576   24.1319 C   0  0  0  0  0  0  0  0  0  0  0  0
  -11.0796  -39.8090   23.5201 C   0  0  0  0  0  0  0  0  0  0  0  0
  -10.2554  -40.0133   22.4170 C   0  0  0  0  0  0  0  0  0  0  0  0
   -9.4695  -38.9810   21.8991 C   0  0  0  0  0  0  0  0  0  0  0  0
   -9.5443  -37.7294   22.5209 C   0  0  0  0  0  0  0  0  0  0  0  0
   -8.7147  -36.2784   22.1346 S   0  0  0  0  0  0  0  0  0  0  0  0
   -8.3061  -33.4719   22.9268 N   0  0  0  0  0  0  0  0  0  0  0  0
   -8.2021  -32.2759   23.4622 C   0  0  0  0  0  0  0  0  0  0  0  0
   -7.4197  -31.1979   22.7122 C   0  0  0  0  0  0  0  0  0  0  0  0
   -6.3634  -30.6071   23.3239 F   0  0  0  0  0  0  0  0  0  0  0  0
   -8.2560  -30.1825   22.3629 F   0  0  0  0  0  0  0  0  0  0  0  0
   -6.9104  -31.6956   21.5479 F   0  0  0  0  0  0  0  0  0  0  0  0
   -8.3391  -29.7263   24.3721 H   0  0  0  0  0  0  0  0  0  0  0  0
   -7.9217  -29.5659   26.0108 H   0  0  0  0  0  0  0  0  0  0  0  0
   -9.3914  -28.8945   25.4673 H   0  0  0  0  0  0  0  0  0  0  0  0
  -10.4983  -31.3872   27.3128 H   0  0  0  0  0  0  0  0  0  0  0  0
  -11.1083  -28.9940   25.8959 H   0  0  0  0  0  0  0  0  0  0  0  0
  -13.6556  -27.9572   25.4976 H   0  0  0  0  0  0  0  0  0  0  0  0
  -13.7693  -25.4525   25.3585 H   0  0  0  0  0  0  0  0  0  0  0  0
  -11.7022  -24.9637   28.8822 H   0  0  0  0  0  0  0  0  0  0  0  0
  -11.4644  -27.4184   29.1971 H   0  0  0  0  0  0  0  0  0  0  0  0
  -11.7889  -38.3879   24.9887 H   0  0  0  0  0  0  0  0  0  0  0  0
  -11.6798  -40.6287   23.9081 H   0  0  0  0  0  0  0  0  0  0  0  0
  -10.2174  -40.9965   21.9513 H   0  0  0  0  0  0  0  0  0  0  0  0
   -8.8230  -39.1468   21.0428 H   0  0  0  0  0  0  0  0  0  0  0  0
  1  2  1  0
  2  3  1  0
  3  4  1  0
  4  5  1  0
  5  6  2  0
  5  7  1  0
  7  8  2  0
  8  9  1  0
  9 10  2  0
 10 11  1  0
 11 12  2  0
  2 13  2  3
 13 14  1  0
 14 15  2  0
 14 16  1  0
 16 17  1  0
 17 18  2  0
 18 19  1  0
 19 20  2  0
 20 21  1  0
 21 22  2  0
 22 23  1  0
 23 24  2  0
 24 25  1  0
 16 26  1  0
 26 27  2  0
 27 28  1  0
 28 29  1  0
 28 30  1  0
 28 31  1  0
 12  7  1  0
 27 13  1  0
 25 17  1  0
 24 19  1  0
  1 32  1  0
  1 33  1  0
  1 34  1  0
  3 35  1  0
  4 36  1  0
  8 37  1  0
  9 38  1  0
 11 39  1  0
 12 40  1  0
 20 41  1  0
 21 42  1  0
 22 43  1  0
 23 44  1  0
M  END
>  <Energy>  (1443) 
203.98242264081276

>  <compound_id>  (1443) 
6781

>  <target_id>  (1443) 
1

>  <reference_id>  (1443) 
82

>  <inspiration_ids>  (1443) 
[68, 82]

>  <energy_score>  (1443) 
-67.58143373505118

>  <distance_score>  (1443) 
5.0009757193293805

>  <path>  (1443) 
/opt/xchem-fragalysis-2/maxwin/BulkDock/SCRATCH/511018/C6781-P82/C6781-P82.minimised.mol

>  <scratch_subdir>  (1443) 
/opt/xchem-fragalysis-2/maxwin/BulkDock/SCRATCH/511018/C6781-P82

>  <fragmenstein_runtime>  (1443) 
7.829596042633057

>  <fragmenstein_outcome>  (1443) 
too moved

>  <fragmenstein_mode>  (1443) 
expansion

>  <fragmenstein_error>  (1443) 


$$$$
C6783-P68
     RDKit          3D

 44 47  0  0  0  0  0  0  0  0999 V2000
  -14.7261  -32.3959   24.8738 C   0  0  0  0  0  0  0  0  0  0  0  0
  -13.6225  -32.6918   25.8608 N   0  0  0  0  0  0  0  0  0  0  0  0
  -14.1570  -34.1134   25.6971 C   0  0  0  0  0  0  0  0  0  0  0  0
  -12.9803  -34.9112   25.0379 C   0  0  0  0  0  0  0  0  0  0  0  0
  -12.4043  -35.9796   25.5557 N   0  0  0  0  0  0  0  0  0  0  0  0
  -11.2420  -36.2909   24.8535 C   0  0  0  0  0  0  0  0  0  0  0  0
  -10.3023  -37.2805   25.2030 C   0  0  0  0  0  0  0  0  0  0  0  0
   -9.1549  -37.4530   24.4214 C   0  0  0  0  0  0  0  0  0  0  0  0
   -8.9414  -36.6695   23.2914 C   0  0  0  0  0  0  0  0  0  0  0  0
   -9.8651  -35.6933   22.9144 C   0  0  0  0  0  0  0  0  0  0  0  0
  -11.0017  -35.5157   23.7197 C   0  0  0  0  0  0  0  0  0  0  0  0
  -12.2793  -34.3870   23.5415 S   0  0  0  0  0  0  0  0  0  0  0  0
  -13.6993  -31.7702   26.9840 C   0  0  0  0  0  0  0  0  0  0  0  0
  -14.2805  -31.8652   28.0265 O   0  0  0  0  0  0  0  0  0  0  0  0
  -12.6263  -30.4784   26.5614 C   0  0  0  0  0  0  0  0  0  0  0  0
  -11.2944  -29.0290   27.1999 C   0  0  0  0  0  0  0  0  0  0  0  0
  -11.4162  -27.6786   26.3146 C   0  0  0  0  0  0  0  0  0  0  0  0
  -12.3150  -26.7055   26.3018 N   0  0  0  0  0  0  0  0  0  0  0  0
  -11.4856  -25.6199   26.1689 C   0  0  0  0  0  0  0  0  0  0  0  0
  -11.8009  -24.2367   26.4548 C   0  0  0  0  0  0  0  0  0  0  0  0
  -11.0199  -23.5517   27.3990 C   0  0  0  0  0  0  0  0  0  0  0  0
  -11.3657  -22.2704   27.6686 C   0  0  0  0  0  0  0  0  0  0  0  0
  -11.9807  -21.5775   26.7065 N   0  0  0  0  0  0  0  0  0  0  0  0
  -12.5579  -22.2467   25.6819 C   0  0  0  0  0  0  0  0  0  0  0  0
  -12.7615  -23.5782   25.7157 C   0  0  0  0  0  0  0  0  0  0  0  0
  -10.2635  -25.9486   25.7819 N   0  0  0  0  0  0  0  0  0  0  0  0
  -10.2805  -27.3128   25.7191 O   0  0  0  0  0  0  0  0  0  0  0  0
  -15.7370  -32.6962   25.2096 H   0  0  0  0  0  0  0  0  0  0  0  0
  -14.4994  -32.6771   23.8407 H   0  0  0  0  0  0  0  0  0  0  0  0
  -14.9177  -31.3224   24.8983 H   0  0  0  0  0  0  0  0  0  0  0  0
  -14.2644  -34.4934   26.7225 H   0  0  0  0  0  0  0  0  0  0  0  0
  -15.0827  -34.4144   25.1761 H   0  0  0  0  0  0  0  0  0  0  0  0
  -10.4602  -37.8937   26.0850 H   0  0  0  0  0  0  0  0  0  0  0  0
   -8.4238  -38.2077   24.7055 H   0  0  0  0  0  0  0  0  0  0  0  0
   -8.0430  -36.8188   22.6955 H   0  0  0  0  0  0  0  0  0  0  0  0
   -9.6987  -35.0804   22.0341 H   0  0  0  0  0  0  0  0  0  0  0  0
  -13.3686  -30.0351   25.9852 H   0  0  0  0  0  0  0  0  0  0  0  0
  -11.9539  -31.2401   26.1822 H   0  0  0  0  0  0  0  0  0  0  0  0
  -11.3939  -28.5775   28.1908 H   0  0  0  0  0  0  0  0  0  0  0  0
  -10.2528  -29.3925   27.2067 H   0  0  0  0  0  0  0  0  0  0  0  0
  -10.2179  -24.0310   27.9465 H   0  0  0  0  0  0  0  0  0  0  0  0
  -10.9974  -21.7241   28.5222 H   0  0  0  0  0  0  0  0  0  0  0  0
  -12.9032  -21.6588   24.8379 H   0  0  0  0  0  0  0  0  0  0  0  0
  -13.4473  -24.0507   25.0264 H   0  0  0  0  0  0  0  0  0  0  0  0
  1  2  1  0
  2  3  1  0
  3  4  1  0
  4  5  2  0
  5  6  1  0
  6  7  2  0
  7  8  1  0
  8  9  2  0
  9 10  1  0
 10 11  2  0
 11 12  1  0
  2 13  1  0
 13 14  2  0
 13 15  1  0
 15 16  1  0
 16 17  1  0
 17 18  2  0
 18 19  1  0
 19 20  1  0
 20 21  2  0
 21 22  1  0
 22 23  2  0
 23 24  1  0
 24 25  2  0
 19 26  2  0
 26 27  1  0
 12  4  1  0
 27 17  1  0
 11  6  1  0
 25 20  1  0
  1 28  1  0
  1 29  1  0
  1 30  1  0
  3 31  1  0
  3 32  1  0
  7 33  1  0
  8 34  1  0
  9 35  1  0
 10 36  1  0
 15 37  1  0
 15 38  1  0
 16 39  1  0
 16 40  1  0
 21 41  1  0
 22 42  1  0
 24 43  1  0
 25 44  1  0
M  END
>  <Energy>  (1444) 
264.78243796125355

>  <compound_id>  (1444) 
6783

>  <target_id>  (1444) 
1

>  <reference_id>  (1444) 
68

>  <inspiration_ids>  (1444) 
[68, 82]

>  <energy_score>  (1444) 
159.57868405504348

>  <distance_score>  (1444) 
4.906491566582905

>  <path>  (1444) 
/opt/xchem-fragalysis-2/maxwin/BulkDock/SCRATCH/511018/C6783-P68/C6783-P68.minimised.mol

>  <scratch_subdir>  (1444) 
/opt/xchem-fragalysis-2/maxwin/BulkDock/SCRATCH/511018/C6783-P68

>  <fragmenstein_runtime>  (1444) 
16.571800470352173

>  <fragmenstein_outcome>  (1444) 
too moved

>  <fragmenstein_mode>  (1444) 
expansion

>  <fragmenstein_error>  (1444) 


$$$$
C6783-P82
     RDKit          3D

 44 47  0  0  0  0  0  0  0  0999 V2000
  -11.5071  -33.6901   24.3103 C   0  0  0  0  0  0  0  0  0  0  0  0
  -12.8407  -34.0987   24.8713 N   0  0  0  0  0  0  0  0  0  0  0  0
  -12.6464  -35.2688   23.8961 C   0  0  0  0  0  0  0  0  0  0  0  0
  -11.4938  -36.2472   24.0487 C   0  0  0  0  0  0  0  0  0  0  0  0
  -10.9786  -36.6501   25.1890 N   0  0  0  0  0  0  0  0  0  0  0  0
   -9.7727  -37.2835   24.9542 C   0  0  0  0  0  0  0  0  0  0  0  0
   -8.8975  -37.7634   25.9446 C   0  0  0  0  0  0  0  0  0  0  0  0
   -7.6932  -38.3575   25.5655 C   0  0  0  0  0  0  0  0  0  0  0  0
   -7.3577  -38.4801   24.2200 C   0  0  0  0  0  0  0  0  0  0  0  0
   -8.2097  -38.0130   23.2181 C   0  0  0  0  0  0  0  0  0  0  0  0
   -9.4151  -37.4187   23.6114 C   0  0  0  0  0  0  0  0  0  0  0  0
  -10.6559  -36.7547   22.6302 S   0  0  0  0  0  0  0  0  0  0  0  0
  -13.7517  -32.9907   24.8330 C   0  0  0  0  0  0  0  0  0  0  0  0
  -14.5317  -32.6491   23.9830 O   0  0  0  0  0  0  0  0  0  0  0  0
  -13.6053  -32.1537   26.1103 C   0  0  0  0  0  0  0  0  0  0  0  0
  -14.3819  -30.8278   26.0698 C   0  0  0  0  0  0  0  0  0  0  0  0
  -13.7037  -29.7701   26.8703 C   0  0  0  0  0  0  0  0  0  0  0  0
  -13.2207  -28.5904   26.5281 N   0  0  0  0  0  0  0  0  0  0  0  0
  -12.6873  -28.1192   27.7150 C   0  0  0  0  0  0  0  0  0  0  0  0
  -12.0783  -26.7987   27.9115 C   0  0  0  0  0  0  0  0  0  0  0  0
  -12.2028  -25.7952   26.9563 C   0  0  0  0  0  0  0  0  0  0  0  0
  -11.6702  -24.5471   27.2455 C   0  0  0  0  0  0  0  0  0  0  0  0
  -11.0193  -24.2448   28.3904 N   0  0  0  0  0  0  0  0  0  0  0  0
  -10.9126  -25.2220   29.3060 C   0  0  0  0  0  0  0  0  0  0  0  0
  -11.4100  -26.4944   29.1097 C   0  0  0  0  0  0  0  0  0  0  0  0
  -12.8869  -28.9648   28.7429 N   0  0  0  0  0  0  0  0  0  0  0  0
  -13.5421  -30.0475   28.1913 O   0  0  0  0  0  0  0  0  0  0  0  0
  -11.3094  -32.7144   24.7543 H   0  0  0  0  0  0  0  0  0  0  0  0
  -10.6510  -34.2405   24.7151 H   0  0  0  0  0  0  0  0  0  0  0  0
  -11.4607  -33.5040   23.2282 H   0  0  0  0  0  0  0  0  0  0  0  0
  -12.8286  -34.9433   22.8575 H   0  0  0  0  0  0  0  0  0  0  0  0
  -13.5438  -35.8737   24.1008 H   0  0  0  0  0  0  0  0  0  0  0  0
   -9.1644  -37.6609   26.9917 H   0  0  0  0  0  0  0  0  0  0  0  0
   -7.0131  -38.7276   26.3292 H   0  0  0  0  0  0  0  0  0  0  0  0
   -6.4146  -38.9476   23.9410 H   0  0  0  0  0  0  0  0  0  0  0  0
   -7.9418  -38.1056   22.1700 H   0  0  0  0  0  0  0  0  0  0  0  0
  -12.5442  -31.9461   26.2760 H   0  0  0  0  0  0  0  0  0  0  0  0
  -13.9619  -32.7581   26.9529 H   0  0  0  0  0  0  0  0  0  0  0  0
  -14.5209  -30.4544   25.0530 H   0  0  0  0  0  0  0  0  0  0  0  0
  -15.3901  -30.9892   26.4704 H   0  0  0  0  0  0  0  0  0  0  0  0
  -12.7157  -25.9625   26.0153 H   0  0  0  0  0  0  0  0  0  0  0  0
  -11.7654  -23.7239   26.5413 H   0  0  0  0  0  0  0  0  0  0  0  0
  -10.4046  -24.9538   30.2269 H   0  0  0  0  0  0  0  0  0  0  0  0
  -11.2753  -27.2278   29.8952 H   0  0  0  0  0  0  0  0  0  0  0  0
  1  2  1  0
  2  3  1  0
  3  4  1  0
  4  5  2  0
  5  6  1  0
  6  7  2  0
  7  8  1  0
  8  9  2  0
  9 10  1  0
 10 11  2  0
 11 12  1  0
  2 13  1  0
 13 14  2  0
 13 15  1  0
 15 16  1  0
 16 17  1  0
 17 18  2  0
 18 19  1  0
 19 20  1  0
 20 21  2  0
 21 22  1  0
 22 23  2  0
 23 24  1  0
 24 25  2  0
 19 26  2  0
 26 27  1  0
 12  4  1  0
 27 17  1  0
 11  6  1  0
 25 20  1  0
  1 28  1  0
  1 29  1  0
  1 30  1  0
  3 31  1  0
  3 32  1  0
  7 33  1  0
  8 34  1  0
  9 35  1  0
 10 36  1  0
 15 37  1  0
 15 38  1  0
 16 39  1  0
 16 40  1  0
 21 41  1  0
 22 42  1  0
 24 43  1  0
 25 44  1  0
M  END
>  <Energy>  (1445) 
100.57387138090176

>  <compound_id>  (1445) 
6783

>  <target_id>  (1445) 
1

>  <reference_id>  (1445) 
82

>  <inspiration_ids>  (1445) 
[68, 82]

>  <energy_score>  (1445) 
-4.629882525307039

>  <distance_score>  (1445) 
4.397549459672293

>  <path>  (1445) 
/opt/xchem-fragalysis-2/maxwin/BulkDock/SCRATCH/511018/C6783-P82/C6783-P82.minimised.mol

>  <scratch_subdir>  (1445) 
/opt/xchem-fragalysis-2/maxwin/BulkDock/SCRATCH/511018/C6783-P82

>  <fragmenstein_runtime>  (1445) 
8.831296443939209

>  <fragmenstein_outcome>  (1445) 
too moved

>  <fragmenstein_mode>  (1445) 
expansion

>  <fragmenstein_error>  (1445) 


$$$$
C6784-P68
     RDKit          3D

 43 46  0  0  0  0  0  0  0  0999 V2000
   -9.7545  -35.9221   25.9818 C   0  0  0  0  0  0  0  0  0  0  0  0
   -9.7068  -34.5096   26.5314 N   0  0  0  0  0  0  0  0  0  0  0  0
   -8.8860  -34.2883   25.2216 C   0  0  0  0  0  0  0  0  0  0  0  0
   -9.7168  -34.3323   23.9455 C   0  0  0  0  0  0  0  0  0  0  0  0
  -10.8404  -33.6822   23.7603 N   0  0  0  0  0  0  0  0  0  0  0  0
  -11.4104  -34.0760   22.5683 C   0  0  0  0  0  0  0  0  0  0  0  0
  -12.6416  -33.6180   22.0702 C   0  0  0  0  0  0  0  0  0  0  0  0
  -13.1172  -34.1084   20.8534 C   0  0  0  0  0  0  0  0  0  0  0  0
  -12.3819  -35.0435   20.1327 C   0  0  0  0  0  0  0  0  0  0  0  0
  -11.1564  -35.5150   20.6070 C   0  0  0  0  0  0  0  0  0  0  0  0
  -10.6893  -35.0150   21.8294 C   0  0  0  0  0  0  0  0  0  0  0  0
   -9.2438  -35.3984   22.6662 S   0  0  0  0  0  0  0  0  0  0  0  0
   -8.9934  -33.9445   27.7018 C   0  0  0  0  0  0  0  0  0  0  0  0
   -8.1979  -34.5004   28.4354 O   0  0  0  0  0  0  0  0  0  0  0  0
   -9.3666  -32.1805   28.3717 C   0  0  0  0  0  0  0  0  0  0  0  0
   -9.7754  -30.0976   27.5537 S   0  0  0  0  0  0  0  0  0  0  0  0
   -9.0879  -28.8254   28.3362 C   0  0  0  0  0  0  0  0  0  0  0  0
   -8.7186  -28.7417   29.6037 N   0  0  0  0  0  0  0  0  0  0  0  0
   -9.7235  -27.9134   30.1289 C   0  0  0  0  0  0  0  0  0  0  0  0
  -10.9890  -28.2978   31.5119 C   0  0  0  0  0  0  0  0  0  0  0  0
  -11.5140  -27.5940   32.6247 C   0  0  0  0  0  0  0  0  0  0  0  0
  -12.3882  -28.1357   33.6775 C   0  0  0  0  0  0  0  0  0  0  0  0
  -12.9790  -29.3152   33.6094 N   0  0  0  0  0  0  0  0  0  0  0  0
  -12.8935  -29.7621   32.3839 C   0  0  0  0  0  0  0  0  0  0  0  0
  -12.0760  -29.1047   31.4171 C   0  0  0  0  0  0  0  0  0  0  0  0
  -10.3810  -27.3644   28.8782 N   0  0  0  0  0  0  0  0  0  0  0  0
   -9.9335  -27.9330   27.8577 N   0  0  0  0  0  0  0  0  0  0  0  0
  -10.5606  -36.0841   25.2577 H   0  0  0  0  0  0  0  0  0  0  0  0
  -10.1008  -36.5172   26.8357 H   0  0  0  0  0  0  0  0  0  0  0  0
   -8.8133  -36.4539   25.7845 H   0  0  0  0  0  0  0  0  0  0  0  0
   -8.0077  -34.9354   25.1177 H   0  0  0  0  0  0  0  0  0  0  0  0
   -8.3671  -33.3440   25.2334 H   0  0  0  0  0  0  0  0  0  0  0  0
  -13.2130  -32.8885   22.6339 H   0  0  0  0  0  0  0  0  0  0  0  0
  -14.0678  -33.7512   20.4636 H   0  0  0  0  0  0  0  0  0  0  0  0
  -12.7640  -35.4095   19.1815 H   0  0  0  0  0  0  0  0  0  0  0  0
  -10.5849  -36.2442   20.0414 H   0  0  0  0  0  0  0  0  0  0  0  0
  -10.3225  -32.0382   28.2605 H   0  0  0  0  0  0  0  0  0  0  0  0
   -9.3347  -32.3602   29.4567 H   0  0  0  0  0  0  0  0  0  0  0  0
  -11.0609  -26.6832   32.9401 H   0  0  0  0  0  0  0  0  0  0  0  0
  -12.5626  -27.6143   34.6109 H   0  0  0  0  0  0  0  0  0  0  0  0
  -13.6114  -30.5281   32.1203 H   0  0  0  0  0  0  0  0  0  0  0  0
  -12.5219  -28.8031   30.5067 H   0  0  0  0  0  0  0  0  0  0  0  0
  -10.4331  -27.8880   26.9755 H   0  0  0  0  0  0  0  0  0  0  0  0
  1  2  1  0
  2  3  1  0
  3  4  1  0
  4  5  2  0
  5  6  1  0
  6  7  2  0
  7  8  1  0
  8  9  2  0
  9 10  1  0
 10 11  2  0
 11 12  1  0
  2 13  1  0
 13 14  2  0
 13 15  1  0
 15 16  1  0
 16 17  1  0
 17 18  2  0
 18 19  1  0
 19 20  1  0
 20 21  2  0
 21 22  1  0
 22 23  2  0
 23 24  1  0
 24 25  2  0
 19 26  2  0
 26 27  1  0
 12  4  1  0
 27 17  1  0
 11  6  1  0
 25 20  1  0
  1 28  1  0
  1 29  1  0
  1 30  1  0
  3 31  1  0
  3 32  1  0
  7 33  1  0
  8 34  1  0
  9 35  1  0
 10 36  1  0
 15 37  1  0
 15 38  1  0
 21 39  1  0
 22 40  1  0
 24 41  1  0
 25 42  1  0
 27 43  1  0
M  END
>  <Energy>  (1446) 
489.84182948811542

>  <compound_id>  (1446) 
6784

>  <target_id>  (1446) 
1

>  <reference_id>  (1446) 
68

>  <inspiration_ids>  (1446) 
[68, 82]

>  <energy_score>  (1446) 
374.7960855224279

>  <distance_score>  (1446) 
4.32549261733653

>  <path>  (1446) 
/opt/xchem-fragalysis-2/maxwin/BulkDock/SCRATCH/511018/C6784-P68/C6784-P68.minimised.mol

>  <scratch_subdir>  (1446) 
/opt/xchem-fragalysis-2/maxwin/BulkDock/SCRATCH/511018/C6784-P68

>  <fragmenstein_runtime>  (1446) 
11.080641746520996

>  <fragmenstein_outcome>  (1446) 
too moved

>  <fragmenstein_mode>  (1446) 
expansion

>  <fragmenstein_error>  (1446) 


$$$$
C6784-P82
     RDKit          3D

 43 46  0  0  0  0  0  0  0  0999 V2000
  -14.3920  -34.5275   26.2112 C   0  0  0  0  0  0  0  0  0  0  0  0
  -13.7663  -33.1863   26.4095 N   0  0  0  0  0  0  0  0  0  0  0  0
  -13.3474  -33.4124   24.9427 C   0  0  0  0  0  0  0  0  0  0  0  0
  -12.0973  -34.2648   24.6513 C   0  0  0  0  0  0  0  0  0  0  0  0
  -11.4274  -35.0102   25.5049 N   0  0  0  0  0  0  0  0  0  0  0  0
  -10.3539  -35.6247   24.8777 C   0  0  0  0  0  0  0  0  0  0  0  0
   -9.4303  -36.4945   25.4875 C   0  0  0  0  0  0  0  0  0  0  0  0
   -8.3647  -37.0051   24.7418 C   0  0  0  0  0  0  0  0  0  0  0  0
   -8.2143  -36.6646   23.4012 C   0  0  0  0  0  0  0  0  0  0  0  0
   -9.1317  -35.8245   22.7668 C   0  0  0  0  0  0  0  0  0  0  0  0
  -10.1997  -35.3246   23.5257 C   0  0  0  0  0  0  0  0  0  0  0  0
  -11.4945  -34.3158   23.0325 S   0  0  0  0  0  0  0  0  0  0  0  0
  -14.3620  -31.8878   26.5607 C   0  0  0  0  0  0  0  0  0  0  0  0
  -15.5125  -31.5411   26.4756 O   0  0  0  0  0  0  0  0  0  0  0  0
  -13.2880  -30.8478   27.0001 C   0  0  0  0  0  0  0  0  0  0  0  0
  -13.6245  -29.2484   26.1975 S   0  0  0  0  0  0  0  0  0  0  0  0
  -12.5666  -28.1129   26.9427 C   0  0  0  0  0  0  0  0  0  0  0  0
  -12.3762  -27.8453   28.2134 N   0  0  0  0  0  0  0  0  0  0  0  0
  -11.6941  -26.6263   28.1830 C   0  0  0  0  0  0  0  0  0  0  0  0
  -11.3857  -25.8492   29.3786 C   0  0  0  0  0  0  0  0  0  0  0  0
  -10.5988  -26.3518   30.4085 C   0  0  0  0  0  0  0  0  0  0  0  0
  -10.4064  -25.5741   31.5411 C   0  0  0  0  0  0  0  0  0  0  0  0
  -10.9578  -24.3596   31.7287 N   0  0  0  0  0  0  0  0  0  0  0  0
  -11.7211  -23.8962   30.7179 C   0  0  0  0  0  0  0  0  0  0  0  0
  -11.9175  -24.5719   29.5258 C   0  0  0  0  0  0  0  0  0  0  0  0
  -11.4220  -26.1945   26.9392 N   0  0  0  0  0  0  0  0  0  0  0  0
  -11.9503  -27.1695   26.1792 N   0  0  0  0  0  0  0  0  0  0  0  0
  -15.2698  -34.5262   25.5476 H   0  0  0  0  0  0  0  0  0  0  0  0
  -14.8528  -34.7200   27.1921 H   0  0  0  0  0  0  0  0  0  0  0  0
  -13.7241  -35.3845   26.0852 H   0  0  0  0  0  0  0  0  0  0  0  0
  -13.0204  -32.4089   24.6463 H   0  0  0  0  0  0  0  0  0  0  0  0
  -14.1735  -33.5837   24.2304 H   0  0  0  0  0  0  0  0  0  0  0  0
   -9.5482  -36.7486   26.5359 H   0  0  0  0  0  0  0  0  0  0  0  0
   -7.6460  -37.6685   25.2161 H   0  0  0  0  0  0  0  0  0  0  0  0
   -7.3728  -37.0572   22.8335 H   0  0  0  0  0  0  0  0  0  0  0  0
   -9.0135  -35.5607   21.7198 H   0  0  0  0  0  0  0  0  0  0  0  0
  -13.3511  -30.7442   28.0879 H   0  0  0  0  0  0  0  0  0  0  0  0
  -12.2845  -31.1880   26.7333 H   0  0  0  0  0  0  0  0  0  0  0  0
  -10.1396  -27.3282   30.3614 H   0  0  0  0  0  0  0  0  0  0  0  0
   -9.7910  -25.9279   32.3599 H   0  0  0  0  0  0  0  0  0  0  0  0
  -12.1805  -22.9271   30.8837 H   0  0  0  0  0  0  0  0  0  0  0  0
  -12.5093  -24.1242   28.7379 H   0  0  0  0  0  0  0  0  0  0  0  0
  -11.9095  -27.1075   25.1677 H   0  0  0  0  0  0  0  0  0  0  0  0
  1  2  1  0
  2  3  1  0
  3  4  1  0
  4  5  2  0
  5  6  1  0
  6  7  2  0
  7  8  1  0
  8  9  2  0
  9 10  1  0
 10 11  2  0
 11 12  1  0
  2 13  1  0
 13 14  2  0
 13 15  1  0
 15 16  1  0
 16 17  1  0
 17 18  2  0
 18 19  1  0
 19 20  1  0
 20 21  2  0
 21 22  1  0
 22 23  2  0
 23 24  1  0
 24 25  2  0
 19 26  2  0
 26 27  1  0
 12  4  1  0
 27 17  1  0
 11  6  1  0
 25 20  1  0
  1 28  1  0
  1 29  1  0
  1 30  1  0
  3 31  1  0
  3 32  1  0
  7 33  1  0
  8 34  1  0
  9 35  1  0
 10 36  1  0
 15 37  1  0
 15 38  1  0
 21 39  1  0
 22 40  1  0
 24 41  1  0
 25 42  1  0
 27 43  1  0
M  END
>  <Energy>  (1447) 
125.83785015568269

>  <compound_id>  (1447) 
6784

>  <target_id>  (1447) 
1

>  <reference_id>  (1447) 
82

>  <inspiration_ids>  (1447) 
[68, 82]

>  <energy_score>  (1447) 
10.792106189995366

>  <distance_score>  (1447) 
3.565505127625983

>  <path>  (1447) 
/opt/xchem-fragalysis-2/maxwin/BulkDock/SCRATCH/511018/C6784-P82/C6784-P82.minimised.mol

>  <scratch_subdir>  (1447) 
/opt/xchem-fragalysis-2/maxwin/BulkDock/SCRATCH/511018/C6784-P82

>  <fragmenstein_runtime>  (1447) 
7.240902423858643

>  <fragmenstein_outcome>  (1447) 
too moved

>  <fragmenstein_mode>  (1447) 
expansion

>  <fragmenstein_error>  (1447) 


$$$$
C6785-P68
     RDKit          3D

 28 30  0  0  0  0  0  0  0  0999 V2000
  -10.8763  -26.9997   25.8930 N   0  0  0  0  0  0  0  0  0  0  0  0
  -11.0354  -27.8408   26.6783 C   0  0  0  0  0  0  0  0  0  0  0  0
  -11.3737  -28.9762   27.5853 C   0  0  0  0  0  0  0  0  0  0  0  0
  -11.7226  -28.3073   29.1380 C   0  0  0  0  0  0  0  0  0  0  0  0
  -12.0661  -28.7890   31.0055 C   0  0  0  0  0  0  0  0  0  0  0  0
  -11.7712  -28.0908   32.1805 C   0  0  0  0  0  0  0  0  0  0  0  0
  -12.3759  -28.2914   33.5113 C   0  0  0  0  0  0  0  0  0  0  0  0
  -13.1182  -29.3084   33.9217 N   0  0  0  0  0  0  0  0  0  0  0  0
  -13.1860  -30.2068   32.9880 C   0  0  0  0  0  0  0  0  0  0  0  0
  -12.6741  -29.9715   31.6908 C   0  0  0  0  0  0  0  0  0  0  0  0
  -12.4759  -30.3550   26.6556 C   0  0  0  0  0  0  0  0  0  0  0  0
  -11.9577  -31.5905   26.3181 N   0  0  0  0  0  0  0  0  0  0  0  0
  -12.7113  -32.5714   25.6596 C   0  0  0  0  0  0  0  0  0  0  0  0
  -12.1945  -33.7043   24.9912 C   0  0  0  0  0  0  0  0  0  0  0  0
  -13.0715  -34.6069   24.3936 C   0  0  0  0  0  0  0  0  0  0  0  0
  -14.4417  -34.3911   24.4737 C   0  0  0  0  0  0  0  0  0  0  0  0
  -14.9598  -33.2779   25.1511 C   0  0  0  0  0  0  0  0  0  0  0  0
  -14.0604  -32.3718   25.7352 C   0  0  0  0  0  0  0  0  0  0  0  0
  -14.3468  -30.9381   26.6213 S   0  0  0  0  0  0  0  0  0  0  0  0
  -12.4360  -27.5390   29.1648 H   0  0  0  0  0  0  0  0  0  0  0  0
  -11.1303  -27.2605   32.2316 H   0  0  0  0  0  0  0  0  0  0  0  0
  -12.1866  -27.6073   34.3205 H   0  0  0  0  0  0  0  0  0  0  0  0
  -13.6087  -31.1686   33.2621 H   0  0  0  0  0  0  0  0  0  0  0  0
  -12.6574  -30.9656   31.2832 H   0  0  0  0  0  0  0  0  0  0  0  0
  -11.1195  -33.8554   24.9427 H   0  0  0  0  0  0  0  0  0  0  0  0
  -12.6830  -35.4762   23.8685 H   0  0  0  0  0  0  0  0  0  0  0  0
  -15.1261  -35.0994   24.0095 H   0  0  0  0  0  0  0  0  0  0  0  0
  -16.0329  -33.1227   25.2174 H   0  0  0  0  0  0  0  0  0  0  0  0
  1  2  3  0
  2  3  1  0
  3  4  2  3
  4  5  1  0
  5  6  2  0
  6  7  1  0
  7  8  2  0
  8  9  1  0
  9 10  2  0
  3 11  1  0
 11 12  2  0
 12 13  1  0
 13 14  2  0
 14 15  1  0
 15 16  2  0
 16 17  1  0
 17 18  2  0
 18 19  1  0
 10  5  1  0
 19 11  1  0
 18 13  1  0
  4 20  1  0
  6 21  1  0
  7 22  1  0
  9 23  1  0
 10 24  1  0
 14 25  1  0
 15 26  1  0
 16 27  1  0
 17 28  1  0
M  END
>  <Energy>  (1448) 
396.3326775740822

>  <compound_id>  (1448) 
6785

>  <target_id>  (1448) 
1

>  <reference_id>  (1448) 
68

>  <inspiration_ids>  (1448) 
[68, 82]

>  <energy_score>  (1448) 
291.2108635339564

>  <distance_score>  (1448) 
6.064406336007909

>  <path>  (1448) 
/opt/xchem-fragalysis-2/maxwin/BulkDock/SCRATCH/511018/C6785-P68/C6785-P68.minimised.mol

>  <scratch_subdir>  (1448) 
/opt/xchem-fragalysis-2/maxwin/BulkDock/SCRATCH/511018/C6785-P68

>  <fragmenstein_runtime>  (1448) 
5.108049631118774

>  <fragmenstein_outcome>  (1448) 
too moved

>  <fragmenstein_mode>  (1448) 
expansion

>  <fragmenstein_error>  (1448) 


$$$$
C6785-P82
     RDKit          3D

 28 30  0  0  0  0  0  0  0  0999 V2000
  -14.7137  -28.5902   25.8029 N   0  0  0  0  0  0  0  0  0  0  0  0
  -13.7438  -28.7995   26.4070 C   0  0  0  0  0  0  0  0  0  0  0  0
  -12.5119  -28.9553   27.1712 C   0  0  0  0  0  0  0  0  0  0  0  0
  -12.2372  -27.7371   27.8676 C   0  0  0  0  0  0  0  0  0  0  0  0
  -11.3694  -26.8269   28.7812 C   0  0  0  0  0  0  0  0  0  0  0  0
  -11.7683  -26.2209   29.9830 C   0  0  0  0  0  0  0  0  0  0  0  0
  -10.9832  -25.4575   30.8380 C   0  0  0  0  0  0  0  0  0  0  0  0
   -9.7715  -25.1206   30.4832 N   0  0  0  0  0  0  0  0  0  0  0  0
   -9.4634  -25.4667   29.2196 C   0  0  0  0  0  0  0  0  0  0  0  0
  -10.2039  -26.2598   28.3434 C   0  0  0  0  0  0  0  0  0  0  0  0
  -12.0032  -30.4384   26.8678 C   0  0  0  0  0  0  0  0  0  0  0  0
  -12.8362  -31.4630   26.5673 N   0  0  0  0  0  0  0  0  0  0  0  0
  -12.3359  -32.5350   25.7707 C   0  0  0  0  0  0  0  0  0  0  0  0
  -13.0181  -33.6668   25.2658 C   0  0  0  0  0  0  0  0  0  0  0  0
  -12.3631  -34.6017   24.4431 C   0  0  0  0  0  0  0  0  0  0  0  0
  -11.0376  -34.4221   24.0802 C   0  0  0  0  0  0  0  0  0  0  0  0
  -10.3308  -33.3361   24.5844 C   0  0  0  0  0  0  0  0  0  0  0  0
  -10.9964  -32.4386   25.4793 C   0  0  0  0  0  0  0  0  0  0  0  0
  -10.3966  -30.9595   26.3836 S   0  0  0  0  0  0  0  0  0  0  0  0
  -13.0131  -26.9893   27.6236 H   0  0  0  0  0  0  0  0  0  0  0  0
  -12.7629  -26.2047   30.3085 H   0  0  0  0  0  0  0  0  0  0  0  0
  -11.3594  -25.0689   31.7775 H   0  0  0  0  0  0  0  0  0  0  0  0
   -8.5063  -25.0769   28.9208 H   0  0  0  0  0  0  0  0  0  0  0  0
   -9.8241  -26.4423   27.3486 H   0  0  0  0  0  0  0  0  0  0  0  0
  -14.0678  -33.8021   25.5118 H   0  0  0  0  0  0  0  0  0  0  0  0
  -12.9164  -35.4600   24.0670 H   0  0  0  0  0  0  0  0  0  0  0  0
  -10.5478  -35.1294   23.4150 H   0  0  0  0  0  0  0  0  0  0  0  0
   -9.2964  -33.1653   24.3025 H   0  0  0  0  0  0  0  0  0  0  0  0
  1  2  3  0
  2  3  1  0
  3  4  2  3
  4  5  1  0
  5  6  2  0
  6  7  1  0
  7  8  2  0
  8  9  1  0
  9 10  2  0
  3 11  1  0
 11 12  2  0
 12 13  1  0
 13 14  2  0
 14 15  1  0
 15 16  2  0
 16 17  1  0
 17 18  2  0
 18 19  1  0
 10  5  1  0
 19 11  1  0
 18 13  1  0
  4 20  1  0
  6 21  1  0
  7 22  1  0
  9 23  1  0
 10 24  1  0
 14 25  1  0
 15 26  1  0
 16 27  1  0
 17 28  1  0
M  END
>  <Energy>  (1449) 
133.19211315317986

>  <compound_id>  (1449) 
6785

>  <target_id>  (1449) 
1

>  <reference_id>  (1449) 
82

>  <inspiration_ids>  (1449) 
[68, 82]

>  <energy_score>  (1449) 
57.38822360233371

>  <distance_score>  (1449) 
4.904428218347813

>  <path>  (1449) 
/opt/xchem-fragalysis-2/maxwin/BulkDock/SCRATCH/511018/C6785-P82/C6785-P82.minimised.mol

>  <scratch_subdir>  (1449) 
/opt/xchem-fragalysis-2/maxwin/BulkDock/SCRATCH/511018/C6785-P82

>  <fragmenstein_runtime>  (1449) 
1.549872636795044

>  <fragmenstein_outcome>  (1449) 
too moved

>  <fragmenstein_mode>  (1449) 
expansion

>  <fragmenstein_error>  (1449) 


$$$$
C6786-P68
     RDKit          3D

 31 33  0  0  0  0  0  0  0  0999 V2000
  -10.8430  -26.9305   25.5416 N   0  0  0  0  0  0  0  0  0  0  0  0
  -11.0349  -27.8242   26.2537 C   0  0  0  0  0  0  0  0  0  0  0  0
  -11.3197  -28.9590   27.2162 C   0  0  0  0  0  0  0  0  0  0  0  0
  -11.2578  -28.1485   28.4067 C   0  0  0  0  0  0  0  0  0  0  0  0
  -12.4154  -27.2494   29.5089 C   0  0  0  0  0  0  0  0  0  0  0  0
  -12.2305  -26.3395   31.3265 C   0  0  0  0  0  0  0  0  0  0  0  0
  -11.6808  -24.3198   31.2992 C   0  0  0  0  0  0  0  0  0  0  0  0
  -12.6782  -23.3502   29.8559 N   0  0  0  0  0  0  0  0  0  0  0  0
  -12.9722  -24.4224   28.3026 C   0  0  0  0  0  0  0  0  0  0  0  0
  -13.2150  -26.2766   27.9912 C   0  0  0  0  0  0  0  0  0  0  0  0
  -12.4997  -30.3861   26.5630 C   0  0  0  0  0  0  0  0  0  0  0  0
  -11.9866  -31.6302   26.2915 N   0  0  0  0  0  0  0  0  0  0  0  0
  -12.7548  -32.6072   25.6659 C   0  0  0  0  0  0  0  0  0  0  0  0
  -12.2557  -33.7667   25.0418 C   0  0  0  0  0  0  0  0  0  0  0  0
  -13.1428  -34.6854   24.4699 C   0  0  0  0  0  0  0  0  0  0  0  0
  -12.6094  -35.9367   23.8234 C   0  0  0  0  0  0  0  0  0  0  0  0
  -11.3304  -35.7893   23.3853 F   0  0  0  0  0  0  0  0  0  0  0  0
  -12.5969  -36.9904   24.6837 F   0  0  0  0  0  0  0  0  0  0  0  0
  -13.3379  -36.3326   22.7455 F   0  0  0  0  0  0  0  0  0  0  0  0
  -14.5161  -34.4362   24.5503 C   0  0  0  0  0  0  0  0  0  0  0  0
  -15.0158  -33.2849   25.1797 C   0  0  0  0  0  0  0  0  0  0  0  0
  -14.0997  -32.3754   25.7276 C   0  0  0  0  0  0  0  0  0  0  0  0
  -14.3442  -30.8881   26.5371 S   0  0  0  0  0  0  0  0  0  0  0  0
  -10.3177  -27.5713   28.4785 H   0  0  0  0  0  0  0  0  0  0  0  0
  -11.8254  -27.0337   32.1787 H   0  0  0  0  0  0  0  0  0  0  0  0
  -11.0150  -23.7283   31.9123 H   0  0  0  0  0  0  0  0  0  0  0  0
  -12.2456  -23.9542   27.5056 H   0  0  0  0  0  0  0  0  0  0  0  0
  -13.8597  -25.4309   28.2846 H   0  0  0  0  0  0  0  0  0  0  0  0
  -11.1794  -33.9277   25.0124 H   0  0  0  0  0  0  0  0  0  0  0  0
  -15.2229  -35.1479   24.1209 H   0  0  0  0  0  0  0  0  0  0  0  0
  -16.0860  -33.1053   25.2363 H   0  0  0  0  0  0  0  0  0  0  0  0
  1  2  3  0
  2  3  1  0
  3  4  2  3
  4  5  1  0
  5  6  2  0
  6  7  1  0
  7  8  2  0
  8  9  1  0
  9 10  2  0
  3 11  1  0
 11 12  2  0
 12 13  1  0
 13 14  2  0
 14 15  1  0
 15 16  1  0
 16 17  1  0
 16 18  1  0
 16 19  1  0
 15 20  2  0
 20 21  1  0
 21 22  2  0
 22 23  1  0
 10  5  1  0
 23 11  1  0
 22 13  1  0
  4 24  1  0
  6 25  1  0
  7 26  1  0
  9 27  1  0
 10 28  1  0
 14 29  1  0
 20 30  1  0
 21 31  1  0
M  END
>  <Energy>  (1450) 
1127.0598642262948

>  <compound_id>  (1450) 
6786

>  <target_id>  (1450) 
1

>  <reference_id>  (1450) 
68

>  <inspiration_ids>  (1450) 
[68, 82]

>  <energy_score>  (1450) 
999.7365361026546

>  <distance_score>  (1450) 
5.499807972749337

>  <path>  (1450) 
/opt/xchem-fragalysis-2/maxwin/BulkDock/SCRATCH/511018/C6786-P68/C6786-P68.minimised.mol

>  <scratch_subdir>  (1450) 
/opt/xchem-fragalysis-2/maxwin/BulkDock/SCRATCH/511018/C6786-P68

>  <fragmenstein_runtime>  (1450) 
8.314416408538818

>  <fragmenstein_outcome>  (1450) 
too moved

>  <fragmenstein_mode>  (1450) 
expansion

>  <fragmenstein_error>  (1450) 


$$$$
C6786-P82
     RDKit          3D

 31 33  0  0  0  0  0  0  0  0999 V2000
   -8.8512  -29.1615   25.5835 N   0  0  0  0  0  0  0  0  0  0  0  0
   -9.7396  -29.7153   26.0684 C   0  0  0  0  0  0  0  0  0  0  0  0
  -10.8916  -30.3846   26.6404 C   0  0  0  0  0  0  0  0  0  0  0  0
  -11.8914  -29.5780   27.2850 C   0  0  0  0  0  0  0  0  0  0  0  0
  -11.8835  -28.0319   27.7835 C   0  0  0  0  0  0  0  0  0  0  0  0
  -11.8321  -27.6654   29.1559 C   0  0  0  0  0  0  0  0  0  0  0  0
  -11.4617  -26.3885   29.6011 C   0  0  0  0  0  0  0  0  0  0  0  0
  -11.1879  -25.4006   28.7561 N   0  0  0  0  0  0  0  0  0  0  0  0
  -11.3145  -25.7024   27.4467 C   0  0  0  0  0  0  0  0  0  0  0  0
  -11.6475  -26.9654   26.9216 C   0  0  0  0  0  0  0  0  0  0  0  0
  -10.9030  -31.8701   25.9858 C   0  0  0  0  0  0  0  0  0  0  0  0
  -11.8515  -32.7616   25.7734 N   0  0  0  0  0  0  0  0  0  0  0  0
  -11.4481  -33.8807   25.0116 C   0  0  0  0  0  0  0  0  0  0  0  0
  -12.2199  -35.0283   24.9076 C   0  0  0  0  0  0  0  0  0  0  0  0
  -11.8817  -36.0324   23.9926 C   0  0  0  0  0  0  0  0  0  0  0  0
  -12.9077  -37.1052   23.8129 C   0  0  0  0  0  0  0  0  0  0  0  0
  -14.1248  -36.5984   24.1580 F   0  0  0  0  0  0  0  0  0  0  0  0
  -13.0217  -37.5524   22.5363 F   0  0  0  0  0  0  0  0  0  0  0  0
  -12.6994  -38.1929   24.5962 F   0  0  0  0  0  0  0  0  0  0  0  0
  -10.7071  -35.9508   23.2508 C   0  0  0  0  0  0  0  0  0  0  0  0
   -9.8663  -34.8528   23.4009 C   0  0  0  0  0  0  0  0  0  0  0  0
  -10.2720  -33.8374   24.2861 C   0  0  0  0  0  0  0  0  0  0  0  0
   -9.4651  -32.3960   24.6538 S   0  0  0  0  0  0  0  0  0  0  0  0
  -12.8242  -30.0709   27.5588 H   0  0  0  0  0  0  0  0  0  0  0  0
  -12.0295  -28.4009   29.9208 H   0  0  0  0  0  0  0  0  0  0  0  0
  -11.3750  -26.1373   30.6527 H   0  0  0  0  0  0  0  0  0  0  0  0
  -11.1015  -24.8723   26.7746 H   0  0  0  0  0  0  0  0  0  0  0  0
  -11.6274  -27.1056   25.8454 H   0  0  0  0  0  0  0  0  0  0  0  0
  -13.1411  -35.0781   25.4852 H   0  0  0  0  0  0  0  0  0  0  0  0
  -10.4472  -36.7337   22.5394 H   0  0  0  0  0  0  0  0  0  0  0  0
   -8.9381  -34.7689   22.8403 H   0  0  0  0  0  0  0  0  0  0  0  0
  1  2  3  0
  2  3  1  0
  3  4  2  3
  4  5  1  0
  5  6  2  0
  6  7  1  0
  7  8  2  0
  8  9  1  0
  9 10  2  0
  3 11  1  0
 11 12  2  0
 12 13  1  0
 13 14  2  0
 14 15  1  0
 15 16  1  0
 16 17  1  0
 16 18  1  0
 16 19  1  0
 15 20  2  0
 20 21  1  0
 21 22  2  0
 22 23  1  0
 10  5  1  0
 23 11  1  0
 22 13  1  0
  4 24  1  0
  6 25  1  0
  7 26  1  0
  9 27  1  0
 10 28  1  0
 14 29  1  0
 20 30  1  0
 21 31  1  0
M  END
>  <Energy>  (1451) 
128.11792984799845

>  <compound_id>  (1451) 
6786

>  <target_id>  (1451) 
1

>  <reference_id>  (1451) 
82

>  <inspiration_ids>  (1451) 
[68, 82]

>  <energy_score>  (1451) 
10.56385692780168

>  <distance_score>  (1451) 
4.665258086343808

>  <path>  (1451) 
/opt/xchem-fragalysis-2/maxwin/BulkDock/SCRATCH/511018/C6786-P82/C6786-P82.minimised.mol

>  <scratch_subdir>  (1451) 
/opt/xchem-fragalysis-2/maxwin/BulkDock/SCRATCH/511018/C6786-P82

>  <fragmenstein_runtime>  (1451) 
2.1965980529785156

>  <fragmenstein_outcome>  (1451) 
too moved

>  <fragmenstein_mode>  (1451) 
expansion

>  <fragmenstein_error>  (1451) 


$$$$
C6787-P68
     RDKit          3D

 47 49  0  0  0  0  0  0  0  0999 V2000
  -11.2624  -38.7817   20.6244 C   0  0  0  0  0  0  0  0  0  0  0  0
  -11.7212  -38.8816   21.9776 O   0  0  0  0  0  0  0  0  0  0  0  0
  -11.7573  -37.6246   22.5086 C   0  0  0  0  0  0  0  0  0  0  0  0
  -12.8258  -36.7936   22.1965 C   0  0  0  0  0  0  0  0  0  0  0  0
  -12.7708  -35.4532   22.5458 C   0  0  0  0  0  0  0  0  0  0  0  0
  -11.6250  -34.9720   23.1966 C   0  0  0  0  0  0  0  0  0  0  0  0
  -11.3530  -33.6483   23.4084 N   0  0  0  0  0  0  0  0  0  0  0  0
  -10.1619  -33.5541   23.9197 C   0  0  0  0  0  0  0  0  0  0  0  0
   -9.4171  -32.4316   23.9512 N   0  0  0  0  0  0  0  0  0  0  0  0
   -9.5504  -31.1818   23.2339 C   0  0  0  0  0  0  0  0  0  0  0  0
  -10.3267  -30.8595   22.3588 O   0  0  0  0  0  0  0  0  0  0  0  0
   -8.1516  -29.7209   23.5981 C   0  0  0  0  0  0  0  0  0  0  0  0
   -7.9504  -28.5975   25.3404 C   0  0  0  0  0  0  0  0  0  0  0  0
   -8.7703  -28.8358   27.2150 C   0  0  0  0  0  0  0  0  0  0  0  0
   -9.7887  -28.7426   28.2652 N   0  0  0  0  0  0  0  0  0  0  0  0
  -10.4075  -27.8126   27.2970 C   0  0  0  0  0  0  0  0  0  0  0  0
   -9.7275  -27.9759   29.9193 C   0  0  0  0  0  0  0  0  0  0  0  0
   -8.8122  -27.3309   30.3231 O   0  0  0  0  0  0  0  0  0  0  0  0
  -11.1973  -28.3411   31.2846 C   0  0  0  0  0  0  0  0  0  0  0  0
  -11.5742  -27.6364   32.4781 C   0  0  0  0  0  0  0  0  0  0  0  0
  -12.5105  -28.0326   33.6004 C   0  0  0  0  0  0  0  0  0  0  0  0
  -13.3028  -29.1008   33.6351 N   0  0  0  0  0  0  0  0  0  0  0  0
  -13.1359  -29.8057   32.5583 C   0  0  0  0  0  0  0  0  0  0  0  0
  -12.0281  -29.4856   31.7121 C   0  0  0  0  0  0  0  0  0  0  0  0
   -9.4152  -34.9801   24.4547 S   0  0  0  0  0  0  0  0  0  0  0  0
  -10.6275  -35.8622   23.6087 C   0  0  0  0  0  0  0  0  0  0  0  0
  -10.6818  -37.2187   23.2970 C   0  0  0  0  0  0  0  0  0  0  0  0
  -12.0118  -38.3017   19.9855 H   0  0  0  0  0  0  0  0  0  0  0  0
  -10.3035  -38.2545   20.5574 H   0  0  0  0  0  0  0  0  0  0  0  0
  -11.1102  -39.7995   20.2521 H   0  0  0  0  0  0  0  0  0  0  0  0
  -13.6672  -37.1707   21.6220 H   0  0  0  0  0  0  0  0  0  0  0  0
  -13.5522  -34.7637   22.2427 H   0  0  0  0  0  0  0  0  0  0  0  0
   -8.6224  -32.3800   24.5429 H   0  0  0  0  0  0  0  0  0  0  0  0
   -7.1619  -30.0521   23.6510 H   0  0  0  0  0  0  0  0  0  0  0  0
   -8.1617  -28.9635   22.8516 H   0  0  0  0  0  0  0  0  0  0  0  0
   -8.8872  -27.9386   24.9295 H   0  0  0  0  0  0  0  0  0  0  0  0
   -6.9206  -28.1878   25.4338 H   0  0  0  0  0  0  0  0  0  0  0  0
   -9.2126  -29.7882   27.1299 H   0  0  0  0  0  0  0  0  0  0  0  0
   -7.8498  -28.6525   27.8059 H   0  0  0  0  0  0  0  0  0  0  0  0
  -10.4769  -28.0141   26.2301 H   0  0  0  0  0  0  0  0  0  0  0  0
  -11.4190  -27.8809   27.5874 H   0  0  0  0  0  0  0  0  0  0  0  0
  -10.1364  -26.7714   27.4542 H   0  0  0  0  0  0  0  0  0  0  0  0
  -11.0427  -26.7742   32.8207 H   0  0  0  0  0  0  0  0  0  0  0  0
  -12.5689  -27.4797   34.5285 H   0  0  0  0  0  0  0  0  0  0  0  0
  -13.6144  -30.7788   32.5237 H   0  0  0  0  0  0  0  0  0  0  0  0
  -11.3178  -30.1867   32.2938 H   0  0  0  0  0  0  0  0  0  0  0  0
   -9.8819  -37.9013   23.5606 H   0  0  0  0  0  0  0  0  0  0  0  0
  1  2  1  0
  2  3  1  0
  3  4  2  0
  4  5  1  0
  5  6  2  0
  6  7  1  0
  7  8  2  0
  8  9  1  0
  9 10  1  0
 10 11  2  0
 10 12  1  0
 12 13  1  0
 13 14  1  0
 14 15  1  0
 15 16  1  0
 15 17  1  0
 17 18  2  0
 17 19  1  0
 19 20  2  0
 20 21  1  0
 21 22  2  0
 22 23  1  0
 23 24  2  0
  8 25  1  0
 25 26  1  0
 26 27  2  0
 27  3  1  0
 26  6  1  0
 24 19  1  0
  1 28  1  0
  1 29  1  0
  1 30  1  0
  4 31  1  0
  5 32  1  0
  9 33  1  0
 12 34  1  0
 12 35  1  0
 13 36  1  0
 13 37  1  0
 14 38  1  0
 14 39  1  0
 16 40  1  0
 16 41  1  0
 16 42  1  0
 20 43  1  0
 21 44  1  0
 23 45  1  0
 24 46  1  0
 27 47  1  0
M  END
>  <Energy>  (1452) 
578.18128137640042

>  <compound_id>  (1452) 
6787

>  <target_id>  (1452) 
1

>  <reference_id>  (1452) 
68

>  <inspiration_ids>  (1452) 
[68, 82]

>  <energy_score>  (1452) 
550.3497724835435

>  <distance_score>  (1452) 
4.653738368613592

>  <path>  (1452) 
/opt/xchem-fragalysis-2/maxwin/BulkDock/SCRATCH/511018/C6787-P68/C6787-P68.minimised.mol

>  <scratch_subdir>  (1452) 
/opt/xchem-fragalysis-2/maxwin/BulkDock/SCRATCH/511018/C6787-P68

>  <fragmenstein_runtime>  (1452) 
14.303090572357178

>  <fragmenstein_outcome>  (1452) 
too moved

>  <fragmenstein_mode>  (1452) 
expansion

>  <fragmenstein_error>  (1452) 


$$$$
C6787-P82
     RDKit          3D

 47 49  0  0  0  0  0  0  0  0999 V2000
  -11.2245  -35.1497   18.2872 C   0  0  0  0  0  0  0  0  0  0  0  0
  -10.8059  -36.2969   19.0332 O   0  0  0  0  0  0  0  0  0  0  0  0
  -10.5122  -35.9481   20.3218 C   0  0  0  0  0  0  0  0  0  0  0  0
  -11.2944  -36.5145   21.3222 C   0  0  0  0  0  0  0  0  0  0  0  0
  -11.1734  -36.0656   22.6334 C   0  0  0  0  0  0  0  0  0  0  0  0
  -10.2810  -35.0152   22.9056 C   0  0  0  0  0  0  0  0  0  0  0  0
  -10.2288  -34.3128   24.0806 N   0  0  0  0  0  0  0  0  0  0  0  0
   -9.4003  -33.3181   23.9277 C   0  0  0  0  0  0  0  0  0  0  0  0
   -9.3462  -32.2335   24.7349 N   0  0  0  0  0  0  0  0  0  0  0  0
  -10.2898  -31.7271   25.7000 C   0  0  0  0  0  0  0  0  0  0  0  0
  -11.3856  -32.1165   26.0081 O   0  0  0  0  0  0  0  0  0  0  0  0
   -9.8408  -30.4247   26.3514 C   0  0  0  0  0  0  0  0  0  0  0  0
   -9.9297  -28.9727   25.7133 C   0  0  0  0  0  0  0  0  0  0  0  0
  -11.2885  -28.1251   25.6646 C   0  0  0  0  0  0  0  0  0  0  0  0
  -11.6065  -26.9621   26.6611 N   0  0  0  0  0  0  0  0  0  0  0  0
  -12.3326  -28.0579   27.3674 C   0  0  0  0  0  0  0  0  0  0  0  0
  -10.7584  -26.2554   27.5784 C   0  0  0  0  0  0  0  0  0  0  0  0
   -9.6089  -26.4368   27.8788 O   0  0  0  0  0  0  0  0  0  0  0  0
  -11.3780  -25.1858   28.3822 C   0  0  0  0  0  0  0  0  0  0  0  0
  -11.6030  -23.9398   27.8238 C   0  0  0  0  0  0  0  0  0  0  0  0
  -11.8359  -22.8932   28.6981 C   0  0  0  0  0  0  0  0  0  0  0  0
  -11.9041  -23.0146   30.0430 N   0  0  0  0  0  0  0  0  0  0  0  0
  -11.7289  -24.2534   30.5485 C   0  0  0  0  0  0  0  0  0  0  0  0
  -11.4251  -25.3523   29.7695 C   0  0  0  0  0  0  0  0  0  0  0  0
   -8.4252  -33.3040   22.5456 S   0  0  0  0  0  0  0  0  0  0  0  0
   -9.4254  -34.5518   21.9011 C   0  0  0  0  0  0  0  0  0  0  0  0
   -9.4887  -35.0403   20.5969 C   0  0  0  0  0  0  0  0  0  0  0  0
  -11.9528  -34.5448   18.8402 H   0  0  0  0  0  0  0  0  0  0  0  0
  -10.3637  -34.5422   17.9897 H   0  0  0  0  0  0  0  0  0  0  0  0
  -11.7107  -35.5081   17.3747 H   0  0  0  0  0  0  0  0  0  0  0  0
  -12.0431  -37.2611   21.0712 H   0  0  0  0  0  0  0  0  0  0  0  0
  -11.8238  -36.4416   23.4162 H   0  0  0  0  0  0  0  0  0  0  0  0
   -8.5457  -31.5945   24.6823 H   0  0  0  0  0  0  0  0  0  0  0  0
   -8.7993  -30.6065   26.5858 H   0  0  0  0  0  0  0  0  0  0  0  0
  -10.4676  -30.4656   27.2372 H   0  0  0  0  0  0  0  0  0  0  0  0
   -9.5863  -29.1446   24.7102 H   0  0  0  0  0  0  0  0  0  0  0  0
   -9.1306  -28.3157   26.0573 H   0  0  0  0  0  0  0  0  0  0  0  0
  -11.1261  -27.5122   24.7702 H   0  0  0  0  0  0  0  0  0  0  0  0
  -12.1730  -28.6957   25.3384 H   0  0  0  0  0  0  0  0  0  0  0  0
  -11.8379  -29.0097   27.5544 H   0  0  0  0  0  0  0  0  0  0  0  0
  -13.3283  -28.1998   26.9218 H   0  0  0  0  0  0  0  0  0  0  0  0
  -12.5323  -27.6934   28.3762 H   0  0  0  0  0  0  0  0  0  0  0  0
  -11.5220  -23.7698   26.7584 H   0  0  0  0  0  0  0  0  0  0  0  0
  -11.9592  -21.8826   28.3256 H   0  0  0  0  0  0  0  0  0  0  0  0
  -11.8036  -24.3327   31.6290 H   0  0  0  0  0  0  0  0  0  0  0  0
  -11.1784  -26.3001   30.2328 H   0  0  0  0  0  0  0  0  0  0  0  0
   -8.8348  -34.6593   19.8210 H   0  0  0  0  0  0  0  0  0  0  0  0
  1  2  1  0
  2  3  1  0
  3  4  2  0
  4  5  1  0
  5  6  2  0
  6  7  1  0
  7  8  2  0
  8  9  1  0
  9 10  1  0
 10 11  2  0
 10 12  1  0
 12 13  1  0
 13 14  1  0
 14 15  1  0
 15 16  1  0
 15 17  1  0
 17 18  2  0
 17 19  1  0
 19 20  2  0
 20 21  1  0
 21 22  2  0
 22 23  1  0
 23 24  2  0
  8 25  1  0
 25 26  1  0
 26 27  2  0
 27  3  1  0
 26  6  1  0
 24 19  1  0
  1 28  1  0
  1 29  1  0
  1 30  1  0
  4 31  1  0
  5 32  1  0
  9 33  1  0
 12 34  1  0
 12 35  1  0
 13 36  1  0
 13 37  1  0
 14 38  1  0
 14 39  1  0
 16 40  1  0
 16 41  1  0
 16 42  1  0
 20 43  1  0
 21 44  1  0
 23 45  1  0
 24 46  1  0
 27 47  1  0
M  END
>  <Energy>  (1453) 
98.346346111880919

>  <compound_id>  (1453) 
6787

>  <target_id>  (1453) 
1

>  <reference_id>  (1453) 
82

>  <inspiration_ids>  (1453) 
[68, 82]

>  <energy_score>  (1453) 
70.51483721901855

>  <distance_score>  (1453) 
3.7579825416856907

>  <path>  (1453) 
/opt/xchem-fragalysis-2/maxwin/BulkDock/SCRATCH/511018/C6787-P82/C6787-P82.minimised.mol

>  <scratch_subdir>  (1453) 
/opt/xchem-fragalysis-2/maxwin/BulkDock/SCRATCH/511018/C6787-P82

>  <fragmenstein_runtime>  (1453) 
9.291358470916748

>  <fragmenstein_outcome>  (1453) 
too moved

>  <fragmenstein_mode>  (1453) 
expansion

>  <fragmenstein_error>  (1453) 


$$$$
C6788-P68
     RDKit          3D

 46 48  0  0  0  0  0  0  0  0999 V2000
   -9.6332  -36.1493   24.1579 C   0  0  0  0  0  0  0  0  0  0  0  0
  -11.0943  -35.9201   23.8897 C   0  0  0  0  0  0  0  0  0  0  0  0
  -11.7790  -36.7915   23.0269 C   0  0  0  0  0  0  0  0  0  0  0  0
  -13.1287  -36.6085   22.7368 C   0  0  0  0  0  0  0  0  0  0  0  0
  -13.8523  -35.5561   23.3024 C   0  0  0  0  0  0  0  0  0  0  0  0
  -13.1768  -34.6810   24.1620 C   0  0  0  0  0  0  0  0  0  0  0  0
  -13.7761  -33.2947   25.0201 S   0  0  0  0  0  0  0  0  0  0  0  0
  -12.2196  -32.9835   25.5760 C   0  0  0  0  0  0  0  0  0  0  0  0
  -11.8015  -31.8258   26.2231 N   0  0  0  0  0  0  0  0  0  0  0  0
  -12.5299  -30.5662   26.5503 C   0  0  0  0  0  0  0  0  0  0  0  0
  -13.6876  -30.2990   26.3968 O   0  0  0  0  0  0  0  0  0  0  0  0
  -11.0723  -29.1802   27.2433 C   0  0  0  0  0  0  0  0  0  0  0  0
  -10.2939  -28.0112   28.3735 C   0  0  0  0  0  0  0  0  0  0  0  0
   -9.0755  -28.2356   29.8987 C   0  0  0  0  0  0  0  0  0  0  0  0
   -9.0667  -26.9407   31.2226 N   0  0  0  0  0  0  0  0  0  0  0  0
  -10.6980  -27.9838   31.2955 C   0  0  0  0  0  0  0  0  0  0  0  0
   -8.7984  -25.2074   31.1075 C   0  0  0  0  0  0  0  0  0  0  0  0
   -8.6745  -24.6846   30.0552 O   0  0  0  0  0  0  0  0  0  0  0  0
   -8.9151  -23.8352   32.5305 C   0  0  0  0  0  0  0  0  0  0  0  0
   -8.2935  -22.7590   33.9788 C   0  0  0  0  0  0  0  0  0  0  0  0
   -7.1950  -23.0086   34.4906 C   0  0  0  0  0  0  0  0  0  0  0  0
   -7.6815  -24.0015   33.9334 N   0  0  0  0  0  0  0  0  0  0  0  0
   -9.1551  -24.5673   32.9087 C   0  0  0  0  0  0  0  0  0  0  0  0
  -10.0829  -23.9966   32.2543 C   0  0  0  0  0  0  0  0  0  0  0  0
  -11.3065  -33.8757   25.2785 N   0  0  0  0  0  0  0  0  0  0  0  0
  -11.8207  -34.8424   24.4483 C   0  0  0  0  0  0  0  0  0  0  0  0
   -9.4759  -37.1573   24.5550 H   0  0  0  0  0  0  0  0  0  0  0  0
   -9.2414  -35.4362   24.8898 H   0  0  0  0  0  0  0  0  0  0  0  0
   -9.0597  -36.0350   23.2325 H   0  0  0  0  0  0  0  0  0  0  0  0
  -11.2477  -37.6245   22.5687 H   0  0  0  0  0  0  0  0  0  0  0  0
  -13.6302  -37.2985   22.0607 H   0  0  0  0  0  0  0  0  0  0  0  0
  -14.9057  -35.4206   23.0773 H   0  0  0  0  0  0  0  0  0  0  0  0
  -10.8111  -31.6902   26.4020 H   0  0  0  0  0  0  0  0  0  0  0  0
  -10.1289  -29.7185   27.1519 H   0  0  0  0  0  0  0  0  0  0  0  0
  -11.1954  -28.3082   26.5361 H   0  0  0  0  0  0  0  0  0  0  0  0
  -11.2471  -27.8842   28.8510 H   0  0  0  0  0  0  0  0  0  0  0  0
  -10.0599  -27.1159   27.8090 H   0  0  0  0  0  0  0  0  0  0  0  0
   -8.0576  -28.2823   29.4791 H   0  0  0  0  0  0  0  0  0  0  0  0
   -8.9187  -29.2682   30.1608 H   0  0  0  0  0  0  0  0  0  0  0  0
  -11.5417  -28.2989   30.6249 H   0  0  0  0  0  0  0  0  0  0  0  0
  -10.5995  -28.9403   31.8024 H   0  0  0  0  0  0  0  0  0  0  0  0
  -11.2479  -27.4843   32.1259 H   0  0  0  0  0  0  0  0  0  0  0  0
   -8.5113  -21.6734   34.0693 H   0  0  0  0  0  0  0  0  0  0  0  0
   -6.3681  -22.7682   35.0775 H   0  0  0  0  0  0  0  0  0  0  0  0
   -9.6428  -25.5623   33.0269 H   0  0  0  0  0  0  0  0  0  0  0  0
  -11.0763  -24.0615   32.0988 H   0  0  0  0  0  0  0  0  0  0  0  0
  1  2  1  0
  2  3  2  0
  3  4  1  0
  4  5  2  0
  5  6  1  0
  6  7  1  0
  7  8  1  0
  8  9  1  0
  9 10  1  0
 10 11  2  0
 10 12  1  0
 12 13  1  0
 13 14  1  0
 14 15  1  0
 15 16  1  0
 15 17  1  0
 17 18  2  0
 17 19  1  0
 19 20  2  0
 20 21  1  0
 21 22  2  0
 22 23  1  0
 23 24  2  0
  8 25  2  0
 25 26  1  0
 26  2  1  0
 26  6  2  0
 24 19  1  0
  1 27  1  0
  1 28  1  0
  1 29  1  0
  3 30  1  0
  4 31  1  0
  5 32  1  0
  9 33  1  0
 12 34  1  0
 12 35  1  0
 13 36  1  0
 13 37  1  0
 14 38  1  0
 14 39  1  0
 16 40  1  0
 16 41  1  0
 16 42  1  0
 20 43  1  0
 21 44  1  0
 23 45  1  0
 24 46  1  0
M  END
>  <Energy>  (1454) 
1160.6340413394835

>  <compound_id>  (1454) 
6788

>  <target_id>  (1454) 
1

>  <reference_id>  (1454) 
68

>  <inspiration_ids>  (1454) 
[68, 82]

>  <energy_score>  (1454) 
1122.6483404621986

>  <distance_score>  (1454) 
4.421582230701529

>  <path>  (1454) 
/opt/xchem-fragalysis-2/maxwin/BulkDock/SCRATCH/511018/C6788-P68/C6788-P68.minimised.mol

>  <scratch_subdir>  (1454) 
/opt/xchem-fragalysis-2/maxwin/BulkDock/SCRATCH/511018/C6788-P68

>  <fragmenstein_runtime>  (1454) 
13.515779256820679

>  <fragmenstein_outcome>  (1454) 
too moved

>  <fragmenstein_mode>  (1454) 
expansion

>  <fragmenstein_error>  (1454) 


$$$$
C6788-P82
     RDKit          3D

 46 48  0  0  0  0  0  0  0  0999 V2000
  -12.0481  -36.4390   25.6238 C   0  0  0  0  0  0  0  0  0  0  0  0
  -11.1288  -36.3829   24.4364 C   0  0  0  0  0  0  0  0  0  0  0  0
  -10.9963  -37.5191   23.6177 C   0  0  0  0  0  0  0  0  0  0  0  0
  -10.1502  -37.5228   22.5120 C   0  0  0  0  0  0  0  0  0  0  0  0
   -9.3909  -36.3997   22.1878 C   0  0  0  0  0  0  0  0  0  0  0  0
   -9.5064  -35.2716   23.0103 C   0  0  0  0  0  0  0  0  0  0  0  0
   -8.6975  -33.7595   22.8785 S   0  0  0  0  0  0  0  0  0  0  0  0
   -9.4857  -33.2282   24.3005 C   0  0  0  0  0  0  0  0  0  0  0  0
   -9.1567  -31.9488   24.6645 N   0  0  0  0  0  0  0  0  0  0  0  0
   -9.7092  -31.0660   25.7271 C   0  0  0  0  0  0  0  0  0  0  0  0
  -10.5262  -31.2852   26.5851 O   0  0  0  0  0  0  0  0  0  0  0  0
   -9.1630  -29.6410   25.5498 C   0  0  0  0  0  0  0  0  0  0  0  0
  -10.2151  -28.4202   25.5219 C   0  0  0  0  0  0  0  0  0  0  0  0
  -11.6409  -28.3940   26.1371 C   0  0  0  0  0  0  0  0  0  0  0  0
  -11.5999  -27.5278   27.3803 N   0  0  0  0  0  0  0  0  0  0  0  0
  -12.5582  -28.5598   27.8663 C   0  0  0  0  0  0  0  0  0  0  0  0
  -12.1159  -26.2225   27.6224 C   0  0  0  0  0  0  0  0  0  0  0  0
  -12.7946  -25.5102   26.9299 O   0  0  0  0  0  0  0  0  0  0  0  0
  -11.6324  -25.6193   28.9325 C   0  0  0  0  0  0  0  0  0  0  0  0
  -10.8645  -26.2954   29.8775 C   0  0  0  0  0  0  0  0  0  0  0  0
  -10.5508  -25.6741   31.0781 C   0  0  0  0  0  0  0  0  0  0  0  0
  -10.9626  -24.4387   31.4074 N   0  0  0  0  0  0  0  0  0  0  0  0
  -11.6912  -23.7902   30.4765 C   0  0  0  0  0  0  0  0  0  0  0  0
  -11.9910  -24.3082   29.2286 C   0  0  0  0  0  0  0  0  0  0  0  0
  -10.3696  -34.0397   24.8126 N   0  0  0  0  0  0  0  0  0  0  0  0
  -10.3589  -35.2388   24.1172 C   0  0  0  0  0  0  0  0  0  0  0  0
  -13.0126  -36.8727   25.3397 H   0  0  0  0  0  0  0  0  0  0  0  0
  -12.2424  -35.4412   26.0270 H   0  0  0  0  0  0  0  0  0  0  0  0
  -11.6002  -37.0503   26.4133 H   0  0  0  0  0  0  0  0  0  0  0  0
  -11.5694  -38.4164   23.8461 H   0  0  0  0  0  0  0  0  0  0  0  0
  -10.0752  -38.4153   21.8942 H   0  0  0  0  0  0  0  0  0  0  0  0
   -8.7258  -36.4008   21.3295 H   0  0  0  0  0  0  0  0  0  0  0  0
   -8.4174  -31.4522   24.1660 H   0  0  0  0  0  0  0  0  0  0  0  0
   -8.3128  -29.4655   26.1596 H   0  0  0  0  0  0  0  0  0  0  0  0
   -8.6784  -29.6396   24.5707 H   0  0  0  0  0  0  0  0  0  0  0  0
   -9.6829  -27.5480   25.8903 H   0  0  0  0  0  0  0  0  0  0  0  0
  -10.4319  -28.1961   24.4737 H   0  0  0  0  0  0  0  0  0  0  0  0
  -12.0864  -29.3941   26.0951 H   0  0  0  0  0  0  0  0  0  0  0  0
  -12.2654  -27.8077   25.4412 H   0  0  0  0  0  0  0  0  0  0  0  0
  -13.5797  -28.4147   27.4863 H   0  0  0  0  0  0  0  0  0  0  0  0
  -12.5797  -28.3936   28.9388 H   0  0  0  0  0  0  0  0  0  0  0  0
  -12.2304  -29.6121   27.8693 H   0  0  0  0  0  0  0  0  0  0  0  0
  -10.5152  -27.2988   29.7201 H   0  0  0  0  0  0  0  0  0  0  0  0
   -9.9560  -26.1834   31.8297 H   0  0  0  0  0  0  0  0  0  0  0  0
  -12.0293  -22.7975   30.7575 H   0  0  0  0  0  0  0  0  0  0  0  0
  -12.5321  -23.7014   28.5138 H   0  0  0  0  0  0  0  0  0  0  0  0
  1  2  1  0
  2  3  2  0
  3  4  1  0
  4  5  2  0
  5  6  1  0
  6  7  1  0
  7  8  1  0
  8  9  1  0
  9 10  1  0
 10 11  2  0
 10 12  1  0
 12 13  1  0
 13 14  1  0
 14 15  1  0
 15 16  1  0
 15 17  1  0
 17 18  2  0
 17 19  1  0
 19 20  2  0
 20 21  1  0
 21 22  2  0
 22 23  1  0
 23 24  2  0
  8 25  2  0
 25 26  1  0
 26  2  1  0
 26  6  2  0
 24 19  1  0
  1 27  1  0
  1 28  1  0
  1 29  1  0
  3 30  1  0
  4 31  1  0
  5 32  1  0
  9 33  1  0
 12 34  1  0
 12 35  1  0
 13 36  1  0
 13 37  1  0
 14 38  1  0
 14 39  1  0
 16 40  1  0
 16 41  1  0
 16 42  1  0
 20 43  1  0
 21 44  1  0
 23 45  1  0
 24 46  1  0
M  END
>  <Energy>  (1455) 
83.241424605151366

>  <compound_id>  (1455) 
6788

>  <target_id>  (1455) 
1

>  <reference_id>  (1455) 
82

>  <inspiration_ids>  (1455) 
[68, 82]

>  <energy_score>  (1455) 
45.255723727864506

>  <distance_score>  (1455) 
3.2196183014358977

>  <path>  (1455) 
/opt/xchem-fragalysis-2/maxwin/BulkDock/SCRATCH/511018/C6788-P82/C6788-P82.minimised.mol

>  <scratch_subdir>  (1455) 
/opt/xchem-fragalysis-2/maxwin/BulkDock/SCRATCH/511018/C6788-P82

>  <fragmenstein_runtime>  (1455) 
6.942664623260498

>  <fragmenstein_outcome>  (1455) 
too moved

>  <fragmenstein_mode>  (1455) 
expansion

>  <fragmenstein_error>  (1455) 


$$$$
C6789-P68
     RDKit          3D

 38 40  0  0  0  0  0  0  0  0999 V2000
   -9.8657  -34.2468   25.9980 C   0  0  0  0  0  0  0  0  0  0  0  0
  -11.1152  -33.3150   25.7899 C   0  0  0  0  0  0  0  0  0  0  0  0
  -11.5552  -33.3619   23.8769 S   0  0  0  0  0  0  0  0  0  0  0  0
  -10.9414  -34.9141   23.3671 C   0  0  0  0  0  0  0  0  0  0  0  0
  -11.1834  -36.0168   24.0335 N   0  0  0  0  0  0  0  0  0  0  0  0
  -10.3662  -37.0242   23.5513 C   0  0  0  0  0  0  0  0  0  0  0  0
  -10.2366  -38.3104   24.1049 C   0  0  0  0  0  0  0  0  0  0  0  0
   -9.3403  -39.2158   23.5337 C   0  0  0  0  0  0  0  0  0  0  0  0
   -8.5899  -38.8604   22.4163 C   0  0  0  0  0  0  0  0  0  0  0  0
   -8.7080  -37.5935   21.8419 C   0  0  0  0  0  0  0  0  0  0  0  0
   -9.5977  -36.6892   22.4350 C   0  0  0  0  0  0  0  0  0  0  0  0
   -9.9408  -35.0689   21.9959 S   0  0  0  0  0  0  0  0  0  0  0  0
  -11.6093  -31.5278   26.3074 C   0  0  0  0  0  0  0  0  0  0  0  0
  -12.7667  -31.3263   25.9998 O   0  0  0  0  0  0  0  0  0  0  0  0
  -10.4779  -30.1982   26.9964 N   0  0  0  0  0  0  0  0  0  0  0  0
  -10.7163  -28.7081   27.1673 N   0  0  0  0  0  0  0  0  0  0  0  0
  -10.4843  -27.5667   26.2026 C   0  0  0  0  0  0  0  0  0  0  0  0
   -9.9757  -27.5601   25.1293 O   0  0  0  0  0  0  0  0  0  0  0  0
  -11.0245  -26.2801   26.4791 C   0  0  0  0  0  0  0  0  0  0  0  0
  -10.4737  -25.0103   26.6080 C   0  0  0  0  0  0  0  0  0  0  0  0
  -11.4022  -23.9769   26.6080 C   0  0  0  0  0  0  0  0  0  0  0  0
  -12.6781  -24.0770   26.1548 N   0  0  0  0  0  0  0  0  0  0  0  0
  -13.1546  -25.2854   25.8863 C   0  0  0  0  0  0  0  0  0  0  0  0
  -12.3867  -26.3925   26.0635 C   0  0  0  0  0  0  0  0  0  0  0  0
   -9.0724  -34.0575   25.2635 H   0  0  0  0  0  0  0  0  0  0  0  0
  -10.1217  -35.3046   25.9214 H   0  0  0  0  0  0  0  0  0  0  0  0
   -9.4190  -34.1722   26.9965 H   0  0  0  0  0  0  0  0  0  0  0  0
  -12.0202  -33.8714   26.0678 H   0  0  0  0  0  0  0  0  0  0  0  0
  -10.8188  -38.5850   24.9784 H   0  0  0  0  0  0  0  0  0  0  0  0
   -9.2298  -40.2064   23.9693 H   0  0  0  0  0  0  0  0  0  0  0  0
   -7.8979  -39.5793   21.9826 H   0  0  0  0  0  0  0  0  0  0  0  0
   -8.1163  -37.3156   20.9751 H   0  0  0  0  0  0  0  0  0  0  0  0
   -9.6208  -30.6019   27.2556 H   0  0  0  0  0  0  0  0  0  0  0  0
  -11.2524  -28.3757   27.9545 H   0  0  0  0  0  0  0  0  0  0  0  0
   -9.4506  -24.8012   26.8438 H   0  0  0  0  0  0  0  0  0  0  0  0
  -11.1863  -23.0065   27.0350 H   0  0  0  0  0  0  0  0  0  0  0  0
  -14.1345  -25.3289   25.4264 H   0  0  0  0  0  0  0  0  0  0  0  0
  -12.7866  -27.3319   25.7072 H   0  0  0  0  0  0  0  0  0  0  0  0
  1  2  1  0
  2  3  1  0
  3  4  1  0
  4  5  2  0
  5  6  1  0
  6  7  2  0
  7  8  1  0
  8  9  2  0
  9 10  1  0
 10 11  2  0
 11 12  1  0
  2 13  1  0
 13 14  2  0
 13 15  1  0
 15 16  1  0
 16 17  1  0
 17 18  2  0
 17 19  1  0
 19 20  2  0
 20 21  1  0
 21 22  2  0
 22 23  1  0
 23 24  2  0
 12  4  1  0
 24 19  1  0
 11  6  1  0
  1 25  1  0
  1 26  1  0
  1 27  1  0
  2 28  1  0
  7 29  1  0
  8 30  1  0
  9 31  1  0
 10 32  1  0
 15 33  1  0
 16 34  1  0
 20 35  1  0
 21 36  1  0
 23 37  1  0
 24 38  1  0
M  END
>  <Energy>  (1456) 
258.69509370906985

>  <compound_id>  (1456) 
6789

>  <target_id>  (1456) 
1

>  <reference_id>  (1456) 
68

>  <inspiration_ids>  (1456) 
[68, 82]

>  <energy_score>  (1456) 
101.24667292959623

>  <distance_score>  (1456) 
5.121355474177663

>  <path>  (1456) 
/opt/xchem-fragalysis-2/maxwin/BulkDock/SCRATCH/511018/C6789-P68/C6789-P68.minimised.mol

>  <scratch_subdir>  (1456) 
/opt/xchem-fragalysis-2/maxwin/BulkDock/SCRATCH/511018/C6789-P68

>  <fragmenstein_runtime>  (1456) 
13.65106725692749

>  <fragmenstein_outcome>  (1456) 
too moved

>  <fragmenstein_mode>  (1456) 
expansion

>  <fragmenstein_error>  (1456) 


$$$$
C6789-P82
     RDKit          3D

 38 40  0  0  0  0  0  0  0  0999 V2000
  -14.1014  -34.3035   25.8925 C   0  0  0  0  0  0  0  0  0  0  0  0
  -13.4414  -33.1999   25.0803 C   0  0  0  0  0  0  0  0  0  0  0  0
  -11.6350  -33.3925   24.9840 S   0  0  0  0  0  0  0  0  0  0  0  0
  -11.2780  -34.8058   24.0521 C   0  0  0  0  0  0  0  0  0  0  0  0
  -10.8746  -35.8925   24.6627 N   0  0  0  0  0  0  0  0  0  0  0  0
  -10.3059  -36.7469   23.7384 C   0  0  0  0  0  0  0  0  0  0  0  0
   -9.6945  -37.9793   24.0315 C   0  0  0  0  0  0  0  0  0  0  0  0
   -9.1274  -38.7264   22.9974 C   0  0  0  0  0  0  0  0  0  0  0  0
   -9.1686  -38.2645   21.6848 C   0  0  0  0  0  0  0  0  0  0  0  0
   -9.7785  -37.0494   21.3669 C   0  0  0  0  0  0  0  0  0  0  0  0
  -10.3401  -36.3059   22.4133 C   0  0  0  0  0  0  0  0  0  0  0  0
  -11.1338  -34.7824   22.3525 S   0  0  0  0  0  0  0  0  0  0  0  0
  -13.8397  -31.7862   25.6689 C   0  0  0  0  0  0  0  0  0  0  0  0
  -14.9587  -31.3961   25.4722 O   0  0  0  0  0  0  0  0  0  0  0  0
  -12.7029  -31.1313   26.2982 N   0  0  0  0  0  0  0  0  0  0  0  0
  -12.5482  -29.8479   26.7674 N   0  0  0  0  0  0  0  0  0  0  0  0
  -13.1811  -28.6088   26.3671 C   0  0  0  0  0  0  0  0  0  0  0  0
  -14.0591  -28.3975   25.5797 O   0  0  0  0  0  0  0  0  0  0  0  0
  -12.5643  -27.3704   26.9906 C   0  0  0  0  0  0  0  0  0  0  0  0
  -12.5660  -26.1822   26.2595 C   0  0  0  0  0  0  0  0  0  0  0  0
  -11.9870  -25.0507   26.8155 C   0  0  0  0  0  0  0  0  0  0  0  0
  -11.4141  -25.0224   28.0359 N   0  0  0  0  0  0  0  0  0  0  0  0
  -11.4654  -26.1551   28.7548 C   0  0  0  0  0  0  0  0  0  0  0  0
  -12.0243  -27.3337   28.2761 C   0  0  0  0  0  0  0  0  0  0  0  0
  -13.8648  -35.2972   25.4990 H   0  0  0  0  0  0  0  0  0  0  0  0
  -13.8147  -34.2663   26.9469 H   0  0  0  0  0  0  0  0  0  0  0  0
  -15.1916  -34.1930   25.8628 H   0  0  0  0  0  0  0  0  0  0  0  0
  -13.8218  -33.2203   24.0523 H   0  0  0  0  0  0  0  0  0  0  0  0
   -9.6580  -38.3314   25.0571 H   0  0  0  0  0  0  0  0  0  0  0  0
   -8.6450  -39.6751   23.2214 H   0  0  0  0  0  0  0  0  0  0  0  0
   -8.7146  -38.8563   20.8921 H   0  0  0  0  0  0  0  0  0  0  0  0
   -9.8010  -36.6863   20.3439 H   0  0  0  0  0  0  0  0  0  0  0  0
  -11.8836  -31.7346   26.2171 H   0  0  0  0  0  0  0  0  0  0  0  0
  -11.7828  -29.6406   27.3971 H   0  0  0  0  0  0  0  0  0  0  0  0
  -13.0048  -26.1374   25.2677 H   0  0  0  0  0  0  0  0  0  0  0  0
  -11.9712  -24.1074   26.2747 H   0  0  0  0  0  0  0  0  0  0  0  0
  -11.0433  -26.0921   29.7546 H   0  0  0  0  0  0  0  0  0  0  0  0
  -12.0594  -28.1880   28.9315 H   0  0  0  0  0  0  0  0  0  0  0  0
  1  2  1  0
  2  3  1  0
  3  4  1  0
  4  5  2  0
  5  6  1  0
  6  7  2  0
  7  8  1  0
  8  9  2  0
  9 10  1  0
 10 11  2  0
 11 12  1  0
  2 13  1  0
 13 14  2  0
 13 15  1  0
 15 16  1  0
 16 17  1  0
 17 18  2  0
 17 19  1  0
 19 20  2  0
 20 21  1  0
 21 22  2  0
 22 23  1  0
 23 24  2  0
 12  4  1  0
 24 19  1  0
 11  6  1  0
  1 25  1  0
  1 26  1  0
  1 27  1  0
  2 28  1  0
  7 29  1  0
  8 30  1  0
  9 31  1  0
 10 32  1  0
 15 33  1  0
 16 34  1  0
 20 35  1  0
 21 36  1  0
 23 37  1  0
 24 38  1  0
M  END
>  <Energy>  (1457) 
99.710970414965246

>  <compound_id>  (1457) 
6789

>  <target_id>  (1457) 
1

>  <reference_id>  (1457) 
82

>  <inspiration_ids>  (1457) 
[68, 82]

>  <energy_score>  (1457) 
-57.73745036450964

>  <distance_score>  (1457) 
4.650085163903512

>  <path>  (1457) 
/opt/xchem-fragalysis-2/maxwin/BulkDock/SCRATCH/511018/C6789-P82/C6789-P82.minimised.mol

>  <scratch_subdir>  (1457) 
/opt/xchem-fragalysis-2/maxwin/BulkDock/SCRATCH/511018/C6789-P82

>  <fragmenstein_runtime>  (1457) 
7.341456174850464

>  <fragmenstein_outcome>  (1457) 
too moved

>  <fragmenstein_mode>  (1457) 
expansion

>  <fragmenstein_error>  (1457) 


$$$$
C6790-P68
     RDKit          3D

 36 38  0  0  0  0  0  0  0  0999 V2000
   -8.8979  -29.4451   26.9383 O   0  0  0  0  0  0  0  0  0  0  0  0
   -9.7139  -29.9674   27.6609 C   0  0  0  0  0  0  0  0  0  0  0  0
  -10.9805  -28.6628   28.1697 C   0  0  0  0  0  0  0  0  0  0  0  0
  -11.8096  -28.3527   29.9060 C   0  0  0  0  0  0  0  0  0  0  0  0
  -10.5886  -28.1996   31.1820 C   0  0  0  0  0  0  0  0  0  0  0  0
   -9.2807  -27.7898   30.2165 C   0  0  0  0  0  0  0  0  0  0  0  0
   -8.4731  -26.4568   30.5464 C   0  0  0  0  0  0  0  0  0  0  0  0
   -8.6817  -25.3206   31.5261 N   0  0  0  0  0  0  0  0  0  0  0  0
   -9.7590  -25.6620   32.4361 C   0  0  0  0  0  0  0  0  0  0  0  0
  -10.8695  -27.1538   32.3411 C   0  0  0  0  0  0  0  0  0  0  0  0
   -9.8739  -31.8280   28.1213 N   0  0  0  0  0  0  0  0  0  0  0  0
   -8.9321  -33.4356   27.4986 C   0  0  0  0  0  0  0  0  0  0  0  0
   -9.5528  -34.5152   26.4145 C   0  0  0  0  0  0  0  0  0  0  0  0
   -9.4270  -35.8179   26.6207 N   0  0  0  0  0  0  0  0  0  0  0  0
   -9.7253  -36.5410   25.4772 C   0  0  0  0  0  0  0  0  0  0  0  0
   -9.6413  -37.9382   25.3401 C   0  0  0  0  0  0  0  0  0  0  0  0
   -9.9716  -38.5311   24.1173 C   0  0  0  0  0  0  0  0  0  0  0  0
  -10.3802  -37.7536   23.0375 C   0  0  0  0  0  0  0  0  0  0  0  0
  -10.4710  -36.3659   23.1510 C   0  0  0  0  0  0  0  0  0  0  0  0
  -10.1390  -35.7854   24.3846 C   0  0  0  0  0  0  0  0  0  0  0  0
  -10.1522  -34.1367   24.8283 S   0  0  0  0  0  0  0  0  0  0  0  0
  -10.2698  -27.8193   28.2036 H   0  0  0  0  0  0  0  0  0  0  0  0
  -11.3735  -28.2322   27.2503 H   0  0  0  0  0  0  0  0  0  0  0  0
  -12.3393  -27.5136   29.5921 H   0  0  0  0  0  0  0  0  0  0  0  0
  -12.4210  -28.9360   30.5966 H   0  0  0  0  0  0  0  0  0  0  0  0
   -8.8070  -28.5219   29.5589 H   0  0  0  0  0  0  0  0  0  0  0  0
   -9.0320  -26.8674   31.3371 H   0  0  0  0  0  0  0  0  0  0  0  0
  -10.1322  -24.7053   32.7589 H   0  0  0  0  0  0  0  0  0  0  0  0
  -11.8199  -27.1671   32.8700 H   0  0  0  0  0  0  0  0  0  0  0  0
  -10.5328  -31.9616   28.7559 H   0  0  0  0  0  0  0  0  0  0  0  0
   -7.9979  -33.3055   26.9070 H   0  0  0  0  0  0  0  0  0  0  0  0
   -8.7649  -34.0509   28.3855 H   0  0  0  0  0  0  0  0  0  0  0  0
   -9.3103  -38.5429   26.1803 H   0  0  0  0  0  0  0  0  0  0  0  0
   -9.9009  -39.6115   24.0125 H   0  0  0  0  0  0  0  0  0  0  0  0
  -10.6287  -38.2321   22.0925 H   0  0  0  0  0  0  0  0  0  0  0  0
  -10.7859  -35.7564   22.3096 H   0  0  0  0  0  0  0  0  0  0  0  0
  1  2  2  0
  2  3  1  0
  3  4  1  0
  4  5  1  0
  5  6  2  0
  6  7  1  0
  7  8  2  0
  8  9  1  0
  9 10  2  0
  2 11  1  0
 11 12  1  0
 12 13  1  0
 13 14  2  0
 14 15  1  0
 15 16  2  0
 16 17  1  0
 17 18  2  0
 18 19  1  0
 19 20  2  0
 20 21  1  0
 10  5  1  0
 21 13  1  0
 20 15  1  0
  3 22  1  0
  3 23  1  0
  4 24  1  0
  4 25  1  0
  6 26  1  0
  7 27  1  0
  9 28  1  0
 10 29  1  0
 11 30  1  0
 12 31  1  0
 12 32  1  0
 16 33  1  0
 17 34  1  0
 18 35  1  0
 19 36  1  0
M  END
>  <Energy>  (1458) 
611.63304270303001

>  <compound_id>  (1458) 
6790

>  <target_id>  (1458) 
1

>  <reference_id>  (1458) 
68

>  <inspiration_ids>  (1458) 
[68, 82]

>  <energy_score>  (1458) 
534.6327914399361

>  <distance_score>  (1458) 
3.8559813860928123

>  <path>  (1458) 
/opt/xchem-fragalysis-2/maxwin/BulkDock/SCRATCH/511018/C6790-P68/C6790-P68.minimised.mol

>  <scratch_subdir>  (1458) 
/opt/xchem-fragalysis-2/maxwin/BulkDock/SCRATCH/511018/C6790-P68

>  <fragmenstein_runtime>  (1458) 
8.455466032028198

>  <fragmenstein_outcome>  (1458) 
too moved

>  <fragmenstein_mode>  (1458) 
expansion

>  <fragmenstein_error>  (1458) 


$$$$
C6790-P82
     RDKit          3D

 36 38  0  0  0  0  0  0  0  0999 V2000
  -14.0315  -29.4476   25.9573 O   0  0  0  0  0  0  0  0  0  0  0  0
  -13.0339  -29.8028   26.4870 C   0  0  0  0  0  0  0  0  0  0  0  0
  -12.3933  -28.8768   27.6454 C   0  0  0  0  0  0  0  0  0  0  0  0
  -12.3755  -27.2266   27.6843 C   0  0  0  0  0  0  0  0  0  0  0  0
  -11.8418  -26.3613   28.8678 C   0  0  0  0  0  0  0  0  0  0  0  0
  -12.1504  -24.9993   28.9540 C   0  0  0  0  0  0  0  0  0  0  0  0
  -11.7363  -24.2260   30.0483 C   0  0  0  0  0  0  0  0  0  0  0  0
  -10.9386  -24.6690   31.0330 N   0  0  0  0  0  0  0  0  0  0  0  0
  -10.5976  -25.9544   30.9320 C   0  0  0  0  0  0  0  0  0  0  0  0
  -11.0403  -26.8012   29.9105 C   0  0  0  0  0  0  0  0  0  0  0  0
  -12.1969  -31.1778   26.3246 N   0  0  0  0  0  0  0  0  0  0  0  0
  -12.5164  -32.4543   25.5118 C   0  0  0  0  0  0  0  0  0  0  0  0
  -11.3705  -33.4989   25.0200 C   0  0  0  0  0  0  0  0  0  0  0  0
  -11.1294  -34.6662   25.6044 N   0  0  0  0  0  0  0  0  0  0  0  0
  -10.2402  -35.4470   24.8732 C   0  0  0  0  0  0  0  0  0  0  0  0
   -9.7821  -36.7205   25.2341 C   0  0  0  0  0  0  0  0  0  0  0  0
   -8.9210  -37.3906   24.3681 C   0  0  0  0  0  0  0  0  0  0  0  0
   -8.5106  -36.8103   23.1696 C   0  0  0  0  0  0  0  0  0  0  0  0
   -8.9380  -35.5418   22.8008 C   0  0  0  0  0  0  0  0  0  0  0  0
   -9.8046  -34.8907   23.6793 C   0  0  0  0  0  0  0  0  0  0  0  0
  -10.5070  -33.3600   23.5197 S   0  0  0  0  0  0  0  0  0  0  0  0
  -11.3839  -29.2110   27.6055 H   0  0  0  0  0  0  0  0  0  0  0  0
  -12.8446  -29.2279   28.5792 H   0  0  0  0  0  0  0  0  0  0  0  0
  -11.7728  -26.9332   26.8130 H   0  0  0  0  0  0  0  0  0  0  0  0
  -13.3943  -26.9044   27.4431 H   0  0  0  0  0  0  0  0  0  0  0  0
  -12.7446  -24.5272   28.1798 H   0  0  0  0  0  0  0  0  0  0  0  0
  -12.0472  -23.1883   30.1291 H   0  0  0  0  0  0  0  0  0  0  0  0
   -9.9643  -26.3307   31.7286 H   0  0  0  0  0  0  0  0  0  0  0  0
  -10.7604  -27.8211   30.0232 H   0  0  0  0  0  0  0  0  0  0  0  0
  -11.4310  -31.1924   26.9904 H   0  0  0  0  0  0  0  0  0  0  0  0
  -13.1850  -33.0285   26.1653 H   0  0  0  0  0  0  0  0  0  0  0  0
  -13.1495  -32.1781   24.6673 H   0  0  0  0  0  0  0  0  0  0  0  0
  -10.1092  -37.1731   26.1638 H   0  0  0  0  0  0  0  0  0  0  0  0
   -8.5638  -38.3838   24.6318 H   0  0  0  0  0  0  0  0  0  0  0  0
   -7.8311  -37.3530   22.5147 H   0  0  0  0  0  0  0  0  0  0  0  0
   -8.6049  -35.0751   21.8786 H   0  0  0  0  0  0  0  0  0  0  0  0
  1  2  2  0
  2  3  1  0
  3  4  1  0
  4  5  1  0
  5  6  2  0
  6  7  1  0
  7  8  2  0
  8  9  1  0
  9 10  2  0
  2 11  1  0
 11 12  1  0
 12 13  1  0
 13 14  2  0
 14 15  1  0
 15 16  2  0
 16 17  1  0
 17 18  2  0
 18 19  1  0
 19 20  2  0
 20 21  1  0
 10  5  1  0
 21 13  1  0
 20 15  1  0
  3 22  1  0
  3 23  1  0
  4 24  1  0
  4 25  1  0
  6 26  1  0
  7 27  1  0
  9 28  1  0
 10 29  1  0
 11 30  1  0
 12 31  1  0
 12 32  1  0
 16 33  1  0
 17 34  1  0
 18 35  1  0
 19 36  1  0
M  END
>  <Energy>  (1459) 
83.158033575553958

>  <compound_id>  (1459) 
6790

>  <target_id>  (1459) 
1

>  <reference_id>  (1459) 
82

>  <inspiration_ids>  (1459) 
[68, 82]

>  <energy_score>  (1459) 
2.231535332683734

>  <distance_score>  (1459) 
3.70903734418144

>  <path>  (1459) 
/opt/xchem-fragalysis-2/maxwin/BulkDock/SCRATCH/511018/C6790-P82/C6790-P82.minimised.mol

>  <scratch_subdir>  (1459) 
/opt/xchem-fragalysis-2/maxwin/BulkDock/SCRATCH/511018/C6790-P82

>  <fragmenstein_runtime>  (1459) 
4.790253162384033

>  <fragmenstein_outcome>  (1459) 
too moved

>  <fragmenstein_mode>  (1459) 
expansion

>  <fragmenstein_error>  (1459) 


$$$$
C6791-P68
     RDKit          3D

 40 42  0  0  0  0  0  0  0  0999 V2000
  -10.2972  -26.2575   25.6664 C   0  0  0  0  0  0  0  0  0  0  0  0
  -10.7353  -25.3860   26.5731 N   0  0  0  0  0  0  0  0  0  0  0  0
  -11.9492  -26.6518   26.6365 C   0  0  0  0  0  0  0  0  0  0  0  0
  -11.1845  -27.9831   27.5063 C   0  0  0  0  0  0  0  0  0  0  0  0
  -11.1709  -29.4079   27.1453 N   0  0  0  0  0  0  0  0  0  0  0  0
  -12.5783  -30.5515   26.4844 C   0  0  0  0  0  0  0  0  0  0  0  0
  -13.7536  -30.2120   26.3590 O   0  0  0  0  0  0  0  0  0  0  0  0
  -12.4021  -32.1981   25.9479 C   0  0  0  0  0  0  0  0  0  0  0  0
  -13.6491  -32.8649   26.1142 C   0  0  0  0  0  0  0  0  0  0  0  0
  -13.9549  -34.1834   25.6716 C   0  0  0  0  0  0  0  0  0  0  0  0
  -12.9719  -34.9240   25.0081 C   0  0  0  0  0  0  0  0  0  0  0  0
  -12.9861  -36.5265   24.3784 S   0  0  0  0  0  0  0  0  0  0  0  0
  -11.3640  -36.3374   23.8566 C   0  0  0  0  0  0  0  0  0  0  0  0
  -10.8171  -35.1691   24.0996 N   0  0  0  0  0  0  0  0  0  0  0  0
  -11.7294  -34.3648   24.7655 C   0  0  0  0  0  0  0  0  0  0  0  0
  -11.4968  -33.0323   25.2050 C   0  0  0  0  0  0  0  0  0  0  0  0
  -11.2470  -23.9814   26.4123 C   0  0  0  0  0  0  0  0  0  0  0  0
  -11.4647  -23.3456   25.4167 O   0  0  0  0  0  0  0  0  0  0  0  0
  -11.4260  -23.1343   27.5773 C   0  0  0  0  0  0  0  0  0  0  0  0
  -11.9960  -21.8872   27.4781 C   0  0  0  0  0  0  0  0  0  0  0  0
  -12.2419  -21.1684   28.6571 C   0  0  0  0  0  0  0  0  0  0  0  0
  -11.6567  -21.3093   29.7956 N   0  0  0  0  0  0  0  0  0  0  0  0
  -10.8772  -22.3232   29.6634 C   0  0  0  0  0  0  0  0  0  0  0  0
  -10.4939  -23.0990   28.5317 C   0  0  0  0  0  0  0  0  0  0  0  0
   -9.4068  -25.6816   25.4947 H   0  0  0  0  0  0  0  0  0  0  0  0
  -10.9785  -26.2220   24.8763 H   0  0  0  0  0  0  0  0  0  0  0  0
  -10.0466  -27.3016   25.7847 H   0  0  0  0  0  0  0  0  0  0  0  0
  -12.9267  -26.2776   26.9847 H   0  0  0  0  0  0  0  0  0  0  0  0
  -12.2762  -27.0901   25.6894 H   0  0  0  0  0  0  0  0  0  0  0  0
  -11.5177  -28.0360   28.5427 H   0  0  0  0  0  0  0  0  0  0  0  0
  -10.1380  -27.7367   27.6644 H   0  0  0  0  0  0  0  0  0  0  0  0
  -10.2714  -29.9034   27.0946 H   0  0  0  0  0  0  0  0  0  0  0  0
  -14.4620  -32.3507   26.6351 H   0  0  0  0  0  0  0  0  0  0  0  0
  -14.9394  -34.6044   25.8611 H   0  0  0  0  0  0  0  0  0  0  0  0
  -10.8312  -37.1342   23.3532 H   0  0  0  0  0  0  0  0  0  0  0  0
  -10.5234  -32.7480   24.8341 H   0  0  0  0  0  0  0  0  0  0  0  0
  -12.4294  -21.5981   26.5350 H   0  0  0  0  0  0  0  0  0  0  0  0
  -12.8633  -20.3191   28.7643 H   0  0  0  0  0  0  0  0  0  0  0  0
  -10.8513  -22.7673   30.6505 H   0  0  0  0  0  0  0  0  0  0  0  0
   -9.7871  -23.9212   28.5499 H   0  0  0  0  0  0  0  0  0  0  0  0
  1  2  1  0
  2  3  1  0
  3  4  1  0
  4  5  1  0
  5  6  1  0
  6  7  2  0
  6  8  1  0
  8  9  2  0
  9 10  1  0
 10 11  2  0
 11 12  1  0
 12 13  1  0
 13 14  2  0
 14 15  1  0
 15 16  2  0
  2 17  1  0
 17 18  2  0
 17 19  1  0
 19 20  2  0
 20 21  1  0
 21 22  2  0
 22 23  1  0
 23 24  2  0
 16  8  1  0
 24 19  1  0
 15 11  1  0
  1 25  1  0
  1 26  1  0
  1 27  1  0
  3 28  1  0
  3 29  1  0
  4 30  1  0
  4 31  1  0
  5 32  1  0
  9 33  1  0
 10 34  1  0
 13 35  1  0
 16 36  1  0
 20 37  1  0
 21 38  1  0
 23 39  1  0
 24 40  1  0
M  END
>  <Energy>  (1460) 
361.9659279736793

>  <compound_id>  (1460) 
6791

>  <target_id>  (1460) 
1

>  <reference_id>  (1460) 
68

>  <inspiration_ids>  (1460) 
[68, 82]

>  <energy_score>  (1460) 
282.90651064634005

>  <distance_score>  (1460) 
4.606631706496691

>  <path>  (1460) 
/opt/xchem-fragalysis-2/maxwin/BulkDock/SCRATCH/511018/C6791-P68/C6791-P68.minimised.mol

>  <scratch_subdir>  (1460) 
/opt/xchem-fragalysis-2/maxwin/BulkDock/SCRATCH/511018/C6791-P68

>  <fragmenstein_runtime>  (1460) 
9.987845420837402

>  <fragmenstein_outcome>  (1460) 
too moved

>  <fragmenstein_mode>  (1460) 
expansion

>  <fragmenstein_error>  (1460) 


$$$$
C6791-P82
     RDKit          3D

 40 42  0  0  0  0  0  0  0  0999 V2000
  -14.9545  -29.0130   25.6083 C   0  0  0  0  0  0  0  0  0  0  0  0
  -14.0878  -28.1717   26.4668 N   0  0  0  0  0  0  0  0  0  0  0  0
  -13.8352  -29.5556   27.1643 C   0  0  0  0  0  0  0  0  0  0  0  0
  -12.4623  -30.2690   27.0752 C   0  0  0  0  0  0  0  0  0  0  0  0
  -12.1819  -31.4565   26.2820 N   0  0  0  0  0  0  0  0  0  0  0  0
  -13.0642  -32.4054   25.6534 C   0  0  0  0  0  0  0  0  0  0  0  0
  -14.2565  -32.4157   25.5557 O   0  0  0  0  0  0  0  0  0  0  0  0
  -12.3105  -33.5966   25.0027 C   0  0  0  0  0  0  0  0  0  0  0  0
  -10.9618  -33.5501   24.6183 C   0  0  0  0  0  0  0  0  0  0  0  0
  -10.2870  -34.6126   24.0014 C   0  0  0  0  0  0  0  0  0  0  0  0
  -10.9893  -35.7971   23.8111 C   0  0  0  0  0  0  0  0  0  0  0  0
  -10.4362  -37.2738   23.1221 S   0  0  0  0  0  0  0  0  0  0  0  0
  -11.9755  -37.9571   23.4084 C   0  0  0  0  0  0  0  0  0  0  0  0
  -12.8721  -37.1733   23.9662 N   0  0  0  0  0  0  0  0  0  0  0  0
  -12.3245  -35.9214   24.1988 C   0  0  0  0  0  0  0  0  0  0  0  0
  -12.9891  -34.8053   24.7791 C   0  0  0  0  0  0  0  0  0  0  0  0
  -12.8447  -27.5176   26.1843 C   0  0  0  0  0  0  0  0  0  0  0  0
  -12.1443  -27.5587   25.2065 O   0  0  0  0  0  0  0  0  0  0  0  0
  -12.3810  -26.5438   27.2252 C   0  0  0  0  0  0  0  0  0  0  0  0
  -12.3247  -25.1912   26.8888 C   0  0  0  0  0  0  0  0  0  0  0  0
  -11.7479  -24.3071   27.7891 C   0  0  0  0  0  0  0  0  0  0  0  0
  -11.2089  -24.6785   28.9676 N   0  0  0  0  0  0  0  0  0  0  0  0
  -11.2878  -25.9849   29.2806 C   0  0  0  0  0  0  0  0  0  0  0  0
  -11.8592  -26.9403   28.4501 C   0  0  0  0  0  0  0  0  0  0  0  0
  -15.9004  -29.2924   26.0935 H   0  0  0  0  0  0  0  0  0  0  0  0
  -14.4489  -29.8201   25.0694 H   0  0  0  0  0  0  0  0  0  0  0  0
  -15.2591  -28.3311   24.8014 H   0  0  0  0  0  0  0  0  0  0  0  0
  -13.8378  -29.1970   28.2052 H   0  0  0  0  0  0  0  0  0  0  0  0
  -14.6617  -30.2867   27.2384 H   0  0  0  0  0  0  0  0  0  0  0  0
  -12.2674  -30.6145   28.0928 H   0  0  0  0  0  0  0  0  0  0  0  0
  -11.6572  -29.5709   26.8488 H   0  0  0  0  0  0  0  0  0  0  0  0
  -11.2357  -31.8107   26.2445 H   0  0  0  0  0  0  0  0  0  0  0  0
  -10.3432  -32.6835   24.7929 H   0  0  0  0  0  0  0  0  0  0  0  0
   -9.2465  -34.5148   23.7006 H   0  0  0  0  0  0  0  0  0  0  0  0
  -12.1974  -38.9816   23.1392 H   0  0  0  0  0  0  0  0  0  0  0  0
  -14.0324  -34.9139   25.0637 H   0  0  0  0  0  0  0  0  0  0  0  0
  -12.6961  -24.8322   25.9349 H   0  0  0  0  0  0  0  0  0  0  0  0
  -11.6908  -23.2447   27.5676 H   0  0  0  0  0  0  0  0  0  0  0  0
  -10.8569  -26.2566   30.2415 H   0  0  0  0  0  0  0  0  0  0  0  0
  -11.8679  -27.9698   28.7611 H   0  0  0  0  0  0  0  0  0  0  0  0
  1  2  1  0
  2  3  1  0
  3  4  1  0
  4  5  1  0
  5  6  1  0
  6  7  2  0
  6  8  1  0
  8  9  2  0
  9 10  1  0
 10 11  2  0
 11 12  1  0
 12 13  1  0
 13 14  2  0
 14 15  1  0
 15 16  2  0
  2 17  1  0
 17 18  2  0
 17 19  1  0
 19 20  2  0
 20 21  1  0
 21 22  2  0
 22 23  1  0
 23 24  2  0
 16  8  1  0
 24 19  1  0
 15 11  1  0
  1 25  1  0
  1 26  1  0
  1 27  1  0
  3 28  1  0
  3 29  1  0
  4 30  1  0
  4 31  1  0
  5 32  1  0
  9 33  1  0
 10 34  1  0
 13 35  1  0
 16 36  1  0
 20 37  1  0
 21 38  1  0
 23 39  1  0
 24 40  1  0
M  END
>  <Energy>  (1461) 
120.48070398636891

>  <compound_id>  (1461) 
6791

>  <target_id>  (1461) 
1

>  <reference_id>  (1461) 
82

>  <inspiration_ids>  (1461) 
[68, 82]

>  <energy_score>  (1461) 
41.42128665903272

>  <distance_score>  (1461) 
4.204022926010973

>  <path>  (1461) 
/opt/xchem-fragalysis-2/maxwin/BulkDock/SCRATCH/511018/C6791-P82/C6791-P82.minimised.mol

>  <scratch_subdir>  (1461) 
/opt/xchem-fragalysis-2/maxwin/BulkDock/SCRATCH/511018/C6791-P82

>  <fragmenstein_runtime>  (1461) 
8.72209119796753

>  <fragmenstein_outcome>  (1461) 
too moved

>  <fragmenstein_mode>  (1461) 
expansion

>  <fragmenstein_error>  (1461) 


$$$$
C6792-P68
     RDKit          3D

 33 35  0  0  0  0  0  0  0  0999 V2000
   -9.7577  -32.3371   31.2836 N   0  0  0  0  0  0  0  0  0  0  0  0
   -9.7016  -32.3304   30.0996 C   0  0  0  0  0  0  0  0  0  0  0  0
   -9.8435  -31.8153   28.2862 C   0  0  0  0  0  0  0  0  0  0  0  0
  -10.1775  -29.7301   27.9005 C   0  0  0  0  0  0  0  0  0  0  0  0
   -9.4306  -29.0572   27.1969 O   0  0  0  0  0  0  0  0  0  0  0  0
  -11.3482  -28.2654   28.8479 C   0  0  0  0  0  0  0  0  0  0  0  0
  -11.9624  -28.1292   30.5069 C   0  0  0  0  0  0  0  0  0  0  0  0
  -11.9460  -26.8299   32.1155 C   0  0  0  0  0  0  0  0  0  0  0  0
  -10.8931  -27.5059   32.2086 C   0  0  0  0  0  0  0  0  0  0  0  0
   -9.4933  -26.5961   31.7482 C   0  0  0  0  0  0  0  0  0  0  0  0
   -9.0062  -25.2991   31.8993 N   0  0  0  0  0  0  0  0  0  0  0  0
   -9.9115  -24.5628   32.4453 C   0  0  0  0  0  0  0  0  0  0  0  0
  -11.3653  -24.9864   32.5693 C   0  0  0  0  0  0  0  0  0  0  0  0
   -9.6275  -33.6043   27.3847 C   0  0  0  0  0  0  0  0  0  0  0  0
   -8.9828  -34.7629   27.4273 N   0  0  0  0  0  0  0  0  0  0  0  0
   -9.2892  -35.6507   26.2917 C   0  0  0  0  0  0  0  0  0  0  0  0
   -8.9419  -37.0135   26.1586 C   0  0  0  0  0  0  0  0  0  0  0  0
   -9.1279  -37.7497   24.9797 C   0  0  0  0  0  0  0  0  0  0  0  0
   -9.7107  -37.1570   23.8808 C   0  0  0  0  0  0  0  0  0  0  0  0
  -10.1815  -35.8579   23.9891 C   0  0  0  0  0  0  0  0  0  0  0  0
  -10.0097  -35.1658   25.2108 C   0  0  0  0  0  0  0  0  0  0  0  0
  -10.8274  -33.7517   25.6193 S   0  0  0  0  0  0  0  0  0  0  0  0
   -8.8673  -31.5512   28.2198 H   0  0  0  0  0  0  0  0  0  0  0  0
  -10.5877  -27.5317   28.4977 H   0  0  0  0  0  0  0  0  0  0  0  0
  -12.3003  -29.0199   31.0575 H   0  0  0  0  0  0  0  0  0  0  0  0
  -11.2005  -27.3584   33.3041 H   0  0  0  0  0  0  0  0  0  0  0  0
   -9.0522  -27.0386   30.8107 H   0  0  0  0  0  0  0  0  0  0  0  0
   -9.5435  -23.6205   32.6945 H   0  0  0  0  0  0  0  0  0  0  0  0
  -11.4827  -24.1109   31.8597 H   0  0  0  0  0  0  0  0  0  0  0  0
   -8.4831  -37.5193   26.9848 H   0  0  0  0  0  0  0  0  0  0  0  0
   -8.7938  -38.7841   24.9398 H   0  0  0  0  0  0  0  0  0  0  0  0
   -9.8479  -37.7172   22.9602 H   0  0  0  0  0  0  0  0  0  0  0  0
  -10.7351  -35.4076   23.1692 H   0  0  0  0  0  0  0  0  0  0  0  0
  1  2  3  0
  2  3  1  0
  3  4  1  0
  4  5  2  0
  4  6  1  0
  6  7  2  3
  7  8  1  0
  8  9  2  0
  9 10  1  0
 10 11  2  0
 11 12  1  0
 12 13  2  0
  3 14  1  0
 14 15  2  0
 15 16  1  0
 16 17  2  0
 17 18  1  0
 18 19  2  0
 19 20  1  0
 20 21  2  0
 21 22  1  0
 13  8  1  0
 22 14  1  0
 21 16  1  0
  3 23  1  0
  6 24  1  0
  7 25  1  0
  9 26  1  0
 10 27  1  0
 12 28  1  0
 13 29  1  0
 17 30  1  0
 18 31  1  0
 19 32  1  0
 20 33  1  0
M  END
>  <Energy>  (1462) 
968.38567787288639

>  <compound_id>  (1462) 
6792

>  <target_id>  (1462) 
1

>  <reference_id>  (1462) 
68

>  <inspiration_ids>  (1462) 
[68, 82]

>  <energy_score>  (1462) 
851.1639360264753

>  <distance_score>  (1462) 
3.649907693307767

>  <path>  (1462) 
/opt/xchem-fragalysis-2/maxwin/BulkDock/SCRATCH/511018/C6792-P68/C6792-P68.minimised.mol

>  <scratch_subdir>  (1462) 
/opt/xchem-fragalysis-2/maxwin/BulkDock/SCRATCH/511018/C6792-P68

>  <fragmenstein_runtime>  (1462) 
5.906465530395508

>  <fragmenstein_outcome>  (1462) 
too moved

>  <fragmenstein_mode>  (1462) 
expansion

>  <fragmenstein_error>  (1462) 


$$$$
C6792-P82
     RDKit          3D

 33 35  0  0  0  0  0  0  0  0999 V2000
   -9.7659  -30.6345   26.4070 N   0  0  0  0  0  0  0  0  0  0  0  0
  -10.8055  -31.1142   26.5505 C   0  0  0  0  0  0  0  0  0  0  0  0
  -12.1156  -31.6699   26.2574 C   0  0  0  0  0  0  0  0  0  0  0  0
  -13.0100  -31.1319   27.4321 C   0  0  0  0  0  0  0  0  0  0  0  0
  -13.9584  -31.7818   27.8823 O   0  0  0  0  0  0  0  0  0  0  0  0
  -12.7679  -29.6040   28.1717 C   0  0  0  0  0  0  0  0  0  0  0  0
  -12.3114  -28.3186   27.8999 C   0  0  0  0  0  0  0  0  0  0  0  0
  -11.9026  -27.0766   28.7595 C   0  0  0  0  0  0  0  0  0  0  0  0
  -11.2182  -27.1036   29.9905 C   0  0  0  0  0  0  0  0  0  0  0  0
  -10.8106  -25.9478   30.6629 C   0  0  0  0  0  0  0  0  0  0  0  0
  -11.0325  -24.7245   30.1882 N   0  0  0  0  0  0  0  0  0  0  0  0
  -11.6779  -24.6769   29.0026 C   0  0  0  0  0  0  0  0  0  0  0  0
  -12.0992  -25.7891   28.2591 C   0  0  0  0  0  0  0  0  0  0  0  0
  -11.7319  -33.1582   25.4794 C   0  0  0  0  0  0  0  0  0  0  0  0
  -12.1273  -34.4027   25.7127 N   0  0  0  0  0  0  0  0  0  0  0  0
  -11.3727  -35.3588   25.0007 C   0  0  0  0  0  0  0  0  0  0  0  0
  -11.4700  -36.7515   25.1329 C   0  0  0  0  0  0  0  0  0  0  0  0
  -10.6974  -37.5731   24.3083 C   0  0  0  0  0  0  0  0  0  0  0  0
   -9.8342  -37.0343   23.3588 C   0  0  0  0  0  0  0  0  0  0  0  0
   -9.6940  -35.6609   23.2280 C   0  0  0  0  0  0  0  0  0  0  0  0
  -10.4678  -34.8621   24.0767 C   0  0  0  0  0  0  0  0  0  0  0  0
  -10.4702  -33.1873   24.1956 S   0  0  0  0  0  0  0  0  0  0  0  0
  -12.7114  -31.2296   25.4537 H   0  0  0  0  0  0  0  0  0  0  0  0
  -13.0581  -29.7913   29.2110 H   0  0  0  0  0  0  0  0  0  0  0  0
  -12.0535  -28.1270   26.8532 H   0  0  0  0  0  0  0  0  0  0  0  0
  -10.9720  -28.0206   30.5004 H   0  0  0  0  0  0  0  0  0  0  0  0
  -10.2839  -26.0086   31.6107 H   0  0  0  0  0  0  0  0  0  0  0  0
  -11.8624  -23.6724   28.6270 H   0  0  0  0  0  0  0  0  0  0  0  0
  -12.5857  -25.6199   27.3043 H   0  0  0  0  0  0  0  0  0  0  0  0
  -12.1566  -37.1769   25.8577 H   0  0  0  0  0  0  0  0  0  0  0  0
  -10.7832  -38.6537   24.4036 H   0  0  0  0  0  0  0  0  0  0  0  0
   -9.2482  -37.6959   22.7241 H   0  0  0  0  0  0  0  0  0  0  0  0
   -9.0003  -35.2253   22.5145 H   0  0  0  0  0  0  0  0  0  0  0  0
  1  2  3  0
  2  3  1  0
  3  4  1  0
  4  5  2  0
  4  6  1  0
  6  7  2  3
  7  8  1  0
  8  9  2  0
  9 10  1  0
 10 11  2  0
 11 12  1  0
 12 13  2  0
  3 14  1  0
 14 15  2  0
 15 16  1  0
 16 17  2  0
 17 18  1  0
 18 19  2  0
 19 20  1  0
 20 21  2  0
 21 22  1  0
 13  8  1  0
 22 14  1  0
 21 16  1  0
  3 23  1  0
  6 24  1  0
  7 25  1  0
  9 26  1  0
 10 27  1  0
 12 28  1  0
 13 29  1  0
 17 30  1  0
 18 31  1  0
 19 32  1  0
 20 33  1  0
M  END
>  <Energy>  (1463) 
133.13847318051211

>  <compound_id>  (1463) 
6792

>  <target_id>  (1463) 
1

>  <reference_id>  (1463) 
82

>  <inspiration_ids>  (1463) 
[68, 82]

>  <energy_score>  (1463) 
24.53448956083571

>  <distance_score>  (1463) 
3.996803549395343

>  <path>  (1463) 
/opt/xchem-fragalysis-2/maxwin/BulkDock/SCRATCH/511018/C6792-P82/C6792-P82.minimised.mol

>  <scratch_subdir>  (1463) 
/opt/xchem-fragalysis-2/maxwin/BulkDock/SCRATCH/511018/C6792-P82

>  <fragmenstein_runtime>  (1463) 
1.9199512004852295

>  <fragmenstein_outcome>  (1463) 
too moved

>  <fragmenstein_mode>  (1463) 
expansion

>  <fragmenstein_error>  (1463) 


$$$$
C6793-P68
     RDKit          3D

 33 35  0  0  0  0  0  0  0  0999 V2000
  -18.5151  -29.2748   24.6611 O   0  0  0  0  0  0  0  0  0  0  0  0
  -17.3661  -29.4369   24.9466 C   0  0  0  0  0  0  0  0  0  0  0  0
  -16.3292  -28.4842   25.2417 N   0  0  0  0  0  0  0  0  0  0  0  0
  -16.3223  -26.9821   25.1892 C   0  0  0  0  0  0  0  0  0  0  0  0
  -14.7979  -26.6143   25.2510 C   0  0  0  0  0  0  0  0  0  0  0  0
  -14.0146  -25.3642   25.5296 C   0  0  0  0  0  0  0  0  0  0  0  0
  -14.3947  -24.0712   25.2019 C   0  0  0  0  0  0  0  0  0  0  0  0
  -13.4562  -23.0547   25.1805 C   0  0  0  0  0  0  0  0  0  0  0  0
  -12.2812  -23.1316   25.8086 N   0  0  0  0  0  0  0  0  0  0  0  0
  -11.9710  -24.3241   26.3379 C   0  0  0  0  0  0  0  0  0  0  0  0
  -12.7564  -25.4725   26.1245 C   0  0  0  0  0  0  0  0  0  0  0  0
  -16.8090  -30.9147   24.9074 C   0  0  0  0  0  0  0  0  0  0  0  0
  -17.3902  -31.7667   23.9575 C   0  0  0  0  0  0  0  0  0  0  0  0
  -16.7960  -32.9915   23.5689 C   0  0  0  0  0  0  0  0  0  0  0  0
  -15.5619  -33.3946   24.1113 C   0  0  0  0  0  0  0  0  0  0  0  0
  -14.8195  -34.5125   23.7514 N   0  0  0  0  0  0  0  0  0  0  0  0
  -13.7050  -34.5498   24.4430 C   0  0  0  0  0  0  0  0  0  0  0  0
  -13.4883  -33.2784   25.5633 S   0  0  0  0  0  0  0  0  0  0  0  0
  -15.0011  -32.5856   25.0961 C   0  0  0  0  0  0  0  0  0  0  0  0
  -15.6224  -31.3760   25.5308 C   0  0  0  0  0  0  0  0  0  0  0  0
  -15.5011  -28.9777   25.5210 H   0  0  0  0  0  0  0  0  0  0  0  0
  -16.9238  -26.5637   25.9981 H   0  0  0  0  0  0  0  0  0  0  0  0
  -16.7680  -26.6731   24.2388 H   0  0  0  0  0  0  0  0  0  0  0  0
  -14.4277  -26.9269   24.2732 H   0  0  0  0  0  0  0  0  0  0  0  0
  -14.3736  -27.3230   25.9626 H   0  0  0  0  0  0  0  0  0  0  0  0
  -15.4185  -23.8219   24.9184 H   0  0  0  0  0  0  0  0  0  0  0  0
  -13.6482  -22.1379   24.6397 H   0  0  0  0  0  0  0  0  0  0  0  0
  -10.9822  -24.3629   26.7865 H   0  0  0  0  0  0  0  0  0  0  0  0
  -12.3452  -26.4429   26.3804 H   0  0  0  0  0  0  0  0  0  0  0  0
  -18.3018  -31.4550   23.4445 H   0  0  0  0  0  0  0  0  0  0  0  0
  -17.2660  -33.6024   22.8023 H   0  0  0  0  0  0  0  0  0  0  0  0
  -12.9721  -35.3366   24.3163 H   0  0  0  0  0  0  0  0  0  0  0  0
  -15.1035  -30.7983   26.2828 H   0  0  0  0  0  0  0  0  0  0  0  0
  1  2  2  0
  2  3  1  0
  3  4  1  0
  4  5  1  0
  5  6  1  0
  6  7  2  0
  7  8  1  0
  8  9  2  0
  9 10  1  0
 10 11  2  0
  2 12  1  0
 12 13  2  0
 13 14  1  0
 14 15  2  0
 15 16  1  0
 16 17  2  0
 17 18  1  0
 18 19  1  0
 19 20  2  0
 11  6  1  0
 20 12  1  0
 19 15  1  0
  3 21  1  0
  4 22  1  0
  4 23  1  0
  5 24  1  0
  5 25  1  0
  7 26  1  0
  8 27  1  0
 10 28  1  0
 11 29  1  0
 13 30  1  0
 14 31  1  0
 17 32  1  0
 20 33  1  0
M  END
>  <Energy>  (1464) 
75.961088235315984

>  <compound_id>  (1464) 
6793

>  <target_id>  (1464) 
1

>  <reference_id>  (1464) 
68

>  <inspiration_ids>  (1464) 
[68, 82]

>  <energy_score>  (1464) 
-22.579792328581277

>  <distance_score>  (1464) 
7.3208616811685765

>  <path>  (1464) 
/opt/xchem-fragalysis-2/maxwin/BulkDock/SCRATCH/511018/C6793-P68/C6793-P68.minimised.mol

>  <scratch_subdir>  (1464) 
/opt/xchem-fragalysis-2/maxwin/BulkDock/SCRATCH/511018/C6793-P68

>  <fragmenstein_runtime>  (1464) 
11.49040174484253

>  <fragmenstein_outcome>  (1464) 
too moved

>  <fragmenstein_mode>  (1464) 
expansion

>  <fragmenstein_error>  (1464) 


$$$$
C6793-P82
     RDKit          3D

 33 35  0  0  0  0  0  0  0  0999 V2000
  -15.2785  -30.9296   25.0724 O   0  0  0  0  0  0  0  0  0  0  0  0
  -14.3552  -31.3575   25.7003 C   0  0  0  0  0  0  0  0  0  0  0  0
  -13.5033  -30.7193   26.6801 N   0  0  0  0  0  0  0  0  0  0  0  0
  -13.5628  -29.3745   27.2845 C   0  0  0  0  0  0  0  0  0  0  0  0
  -12.6493  -28.3111   26.6222 C   0  0  0  0  0  0  0  0  0  0  0  0
  -12.3452  -27.0107   27.3582 C   0  0  0  0  0  0  0  0  0  0  0  0
  -11.8067  -26.9783   28.6476 C   0  0  0  0  0  0  0  0  0  0  0  0
  -11.3862  -25.7764   29.2105 C   0  0  0  0  0  0  0  0  0  0  0  0
  -11.4541  -24.5967   28.5739 N   0  0  0  0  0  0  0  0  0  0  0  0
  -11.9997  -24.6208   27.3424 C   0  0  0  0  0  0  0  0  0  0  0  0
  -12.4467  -25.7786   26.7055 C   0  0  0  0  0  0  0  0  0  0  0  0
  -13.9579  -32.7921   25.4148 C   0  0  0  0  0  0  0  0  0  0  0  0
  -13.8909  -33.7379   26.4295 C   0  0  0  0  0  0  0  0  0  0  0  0
  -13.3009  -35.0001   26.2037 C   0  0  0  0  0  0  0  0  0  0  0  0
  -12.7216  -35.2982   24.9539 C   0  0  0  0  0  0  0  0  0  0  0  0
  -11.9657  -36.4164   24.6401 N   0  0  0  0  0  0  0  0  0  0  0  0
  -11.6023  -36.3609   23.3786 C   0  0  0  0  0  0  0  0  0  0  0  0
  -12.1631  -35.0083   22.4879 S   0  0  0  0  0  0  0  0  0  0  0  0
  -12.9182  -34.3900   23.9127 C   0  0  0  0  0  0  0  0  0  0  0  0
  -13.6221  -33.1821   24.1111 C   0  0  0  0  0  0  0  0  0  0  0  0
  -12.7665  -31.3630   26.9480 H   0  0  0  0  0  0  0  0  0  0  0  0
  -13.2878  -29.5137   28.3342 H   0  0  0  0  0  0  0  0  0  0  0  0
  -14.6039  -29.0365   27.2471 H   0  0  0  0  0  0  0  0  0  0  0  0
  -11.6804  -28.7756   26.4033 H   0  0  0  0  0  0  0  0  0  0  0  0
  -13.0813  -28.0762   25.6400 H   0  0  0  0  0  0  0  0  0  0  0  0
  -11.6975  -27.8715   29.2400 H   0  0  0  0  0  0  0  0  0  0  0  0
  -10.9693  -25.7421   30.2134 H   0  0  0  0  0  0  0  0  0  0  0  0
  -12.0628  -23.6538   26.8477 H   0  0  0  0  0  0  0  0  0  0  0  0
  -12.8344  -25.7035   25.6948 H   0  0  0  0  0  0  0  0  0  0  0  0
  -14.2643  -33.4974   27.4214 H   0  0  0  0  0  0  0  0  0  0  0  0
  -13.2067  -35.7159   27.0170 H   0  0  0  0  0  0  0  0  0  0  0  0
  -10.9967  -37.1303   22.9168 H   0  0  0  0  0  0  0  0  0  0  0  0
  -13.8493  -32.5361   23.2735 H   0  0  0  0  0  0  0  0  0  0  0  0
  1  2  2  0
  2  3  1  0
  3  4  1  0
  4  5  1  0
  5  6  1  0
  6  7  2  0
  7  8  1  0
  8  9  2  0
  9 10  1  0
 10 11  2  0
  2 12  1  0
 12 13  2  0
 13 14  1  0
 14 15  2  0
 15 16  1  0
 16 17  2  0
 17 18  1  0
 18 19  1  0
 19 20  2  0
 11  6  1  0
 20 12  1  0
 19 15  1  0
  3 21  1  0
  4 22  1  0
  4 23  1  0
  5 24  1  0
  5 25  1  0
  7 26  1  0
  8 27  1  0
 10 28  1  0
 11 29  1  0
 13 30  1  0
 14 31  1  0
 17 32  1  0
 20 33  1  0
M  END
>  <Energy>  (1465) 
51.417276054510531

>  <compound_id>  (1465) 
6793

>  <target_id>  (1465) 
1

>  <reference_id>  (1465) 
82

>  <inspiration_ids>  (1465) 
[68, 82]

>  <energy_score>  (1465) 
-47.123604509384904

>  <distance_score>  (1465) 
4.8166995835818405

>  <path>  (1465) 
/opt/xchem-fragalysis-2/maxwin/BulkDock/SCRATCH/511018/C6793-P82/C6793-P82.minimised.mol

>  <scratch_subdir>  (1465) 
/opt/xchem-fragalysis-2/maxwin/BulkDock/SCRATCH/511018/C6793-P82

>  <fragmenstein_runtime>  (1465) 
6.752877473831177

>  <fragmenstein_outcome>  (1465) 
too moved

>  <fragmenstein_mode>  (1465) 
expansion

>  <fragmenstein_error>  (1465) 


$$$$
C6794-P68
     RDKit          3D

 36 38  0  0  0  0  0  0  0  0999 V2000
  -11.6350  -37.6325   23.7355 C   0  0  0  0  0  0  0  0  0  0  0  0
  -12.0577  -36.2789   24.1865 C   0  0  0  0  0  0  0  0  0  0  0  0
  -12.8247  -36.0473   25.2324 N   0  0  0  0  0  0  0  0  0  0  0  0
  -13.0089  -34.6845   25.3889 C   0  0  0  0  0  0  0  0  0  0  0  0
  -13.7735  -34.0159   26.3549 C   0  0  0  0  0  0  0  0  0  0  0  0
  -13.6412  -32.5999   26.5231 C   0  0  0  0  0  0  0  0  0  0  0  0
  -12.8409  -31.7244   25.7394 C   0  0  0  0  0  0  0  0  0  0  0  0
  -13.4147  -30.0893   26.0673 C   0  0  0  0  0  0  0  0  0  0  0  0
  -14.5295  -30.1521   26.4882 O   0  0  0  0  0  0  0  0  0  0  0  0
  -12.6710  -28.3123   25.7359 N   0  0  0  0  0  0  0  0  0  0  0  0
  -13.2482  -26.8978   26.0234 C   0  0  0  0  0  0  0  0  0  0  0  0
  -13.0466  -25.4408   25.6429 C   0  0  0  0  0  0  0  0  0  0  0  0
  -11.9373  -24.5728   26.2142 C   0  0  0  0  0  0  0  0  0  0  0  0
  -12.1661  -23.2148   26.3644 C   0  0  0  0  0  0  0  0  0  0  0  0
  -11.5191  -22.5635   27.4092 C   0  0  0  0  0  0  0  0  0  0  0  0
  -10.4613  -23.0779   28.0245 N   0  0  0  0  0  0  0  0  0  0  0  0
   -9.9843  -24.1866   27.4302 C   0  0  0  0  0  0  0  0  0  0  0  0
  -10.6511  -24.9757   26.5032 C   0  0  0  0  0  0  0  0  0  0  0  0
  -12.4643  -32.4809   24.5387 C   0  0  0  0  0  0  0  0  0  0  0  0
  -12.3589  -33.8908   24.4656 C   0  0  0  0  0  0  0  0  0  0  0  0
  -11.5743  -34.8874   23.3015 S   0  0  0  0  0  0  0  0  0  0  0  0
  -10.5435  -37.7141   23.7192 H   0  0  0  0  0  0  0  0  0  0  0  0
  -12.0199  -37.8466   22.7334 H   0  0  0  0  0  0  0  0  0  0  0  0
  -12.0196  -38.3992   24.4156 H   0  0  0  0  0  0  0  0  0  0  0  0
  -14.3907  -34.5823   27.0476 H   0  0  0  0  0  0  0  0  0  0  0  0
  -14.2366  -32.1924   27.3464 H   0  0  0  0  0  0  0  0  0  0  0  0
  -11.7958  -28.4079   25.3221 H   0  0  0  0  0  0  0  0  0  0  0  0
  -14.3014  -27.0836   25.7598 H   0  0  0  0  0  0  0  0  0  0  0  0
  -13.2822  -26.7899   27.1005 H   0  0  0  0  0  0  0  0  0  0  0  0
  -13.9078  -24.9429   26.0432 H   0  0  0  0  0  0  0  0  0  0  0  0
  -13.3993  -25.2442   24.6303 H   0  0  0  0  0  0  0  0  0  0  0  0
  -12.9969  -22.7290   25.8647 H   0  0  0  0  0  0  0  0  0  0  0  0
  -11.8526  -21.6008   27.7673 H   0  0  0  0  0  0  0  0  0  0  0  0
   -9.0431  -24.4421   27.8271 H   0  0  0  0  0  0  0  0  0  0  0  0
  -10.2805  -25.9513   26.2411 H   0  0  0  0  0  0  0  0  0  0  0  0
  -12.2104  -32.0046   23.5874 H   0  0  0  0  0  0  0  0  0  0  0  0
  1  2  1  0
  2  3  2  0
  3  4  1  0
  4  5  2  0
  5  6  1  0
  6  7  2  0
  7  8  1  0
  8  9  2  0
  8 10  1  0
 10 11  1  0
 11 12  1  0
 12 13  1  0
 13 14  2  0
 14 15  1  0
 15 16  2  0
 16 17  1  0
 17 18  2  0
  7 19  1  0
 19 20  2  0
 20 21  1  0
 21  2  1  0
 20  4  1  0
 18 13  1  0
  1 22  1  0
  1 23  1  0
  1 24  1  0
  5 25  1  0
  6 26  1  0
 10 27  1  0
 11 28  1  0
 11 29  1  0
 12 30  1  0
 12 31  1  0
 14 32  1  0
 15 33  1  0
 17 34  1  0
 18 35  1  0
 19 36  1  0
M  END
>  <Energy>  (1466) 
264.25838489476899

>  <compound_id>  (1466) 
6794

>  <target_id>  (1466) 
1

>  <reference_id>  (1466) 
68

>  <inspiration_ids>  (1466) 
[68, 82]

>  <energy_score>  (1466) 
168.3295866496087

>  <distance_score>  (1466) 
5.141838995512424

>  <path>  (1466) 
/opt/xchem-fragalysis-2/maxwin/BulkDock/SCRATCH/511018/C6794-P68/C6794-P68.minimised.mol

>  <scratch_subdir>  (1466) 
/opt/xchem-fragalysis-2/maxwin/BulkDock/SCRATCH/511018/C6794-P68

>  <fragmenstein_runtime>  (1466) 
11.201523542404175

>  <fragmenstein_outcome>  (1466) 
too moved

>  <fragmenstein_mode>  (1466) 
expansion

>  <fragmenstein_error>  (1466) 


$$$$
C6794-P82
     RDKit          3D

 36 38  0  0  0  0  0  0  0  0999 V2000
   -7.7805  -37.5307   22.6529 C   0  0  0  0  0  0  0  0  0  0  0  0
   -8.7237  -36.5646   23.2767 C   0  0  0  0  0  0  0  0  0  0  0  0
   -9.8042  -36.9081   23.9431 N   0  0  0  0  0  0  0  0  0  0  0  0
  -10.4861  -35.7755   24.3742 C   0  0  0  0  0  0  0  0  0  0  0  0
  -11.7263  -35.7198   25.0406 C   0  0  0  0  0  0  0  0  0  0  0  0
  -12.2967  -34.4789   25.4498 C   0  0  0  0  0  0  0  0  0  0  0  0
  -11.6197  -33.2506   25.3632 C   0  0  0  0  0  0  0  0  0  0  0  0
  -12.4236  -31.8950   25.8087 C   0  0  0  0  0  0  0  0  0  0  0  0
  -13.5594  -31.9702   25.4781 O   0  0  0  0  0  0  0  0  0  0  0  0
  -11.6133  -30.6732   26.4837 N   0  0  0  0  0  0  0  0  0  0  0  0
  -12.0681  -29.1995   26.7999 C   0  0  0  0  0  0  0  0  0  0  0  0
  -12.4069  -28.3794   28.1832 C   0  0  0  0  0  0  0  0  0  0  0  0
  -11.7262  -27.0903   28.7634 C   0  0  0  0  0  0  0  0  0  0  0  0
  -11.0737  -27.0567   30.0200 C   0  0  0  0  0  0  0  0  0  0  0  0
  -10.6424  -25.8736   30.6141 C   0  0  0  0  0  0  0  0  0  0  0  0
  -10.8125  -24.6858   30.0359 N   0  0  0  0  0  0  0  0  0  0  0  0
  -11.4407  -24.6999   28.8382 C   0  0  0  0  0  0  0  0  0  0  0  0
  -11.8917  -25.8431   28.1682 C   0  0  0  0  0  0  0  0  0  0  0  0
  -10.3783  -33.3338   24.6587 C   0  0  0  0  0  0  0  0  0  0  0  0
   -9.8578  -34.5635   24.1230 C   0  0  0  0  0  0  0  0  0  0  0  0
   -8.4606  -34.8769   23.1389 S   0  0  0  0  0  0  0  0  0  0  0  0
   -7.3472  -37.1395   21.7271 H   0  0  0  0  0  0  0  0  0  0  0  0
   -8.3002  -38.4632   22.4099 H   0  0  0  0  0  0  0  0  0  0  0  0
   -6.9693  -37.7668   23.3476 H   0  0  0  0  0  0  0  0  0  0  0  0
  -12.2726  -36.6437   25.2145 H   0  0  0  0  0  0  0  0  0  0  0  0
  -13.2900  -34.5029   25.9014 H   0  0  0  0  0  0  0  0  0  0  0  0
  -10.6251  -30.9183   26.5621 H   0  0  0  0  0  0  0  0  0  0  0  0
  -11.3573  -28.5812   26.2387 H   0  0  0  0  0  0  0  0  0  0  0  0
  -13.0043  -29.1511   26.2262 H   0  0  0  0  0  0  0  0  0  0  0  0
  -13.4113  -28.0165   27.9284 H   0  0  0  0  0  0  0  0  0  0  0  0
  -12.5936  -29.1119   28.9737 H   0  0  0  0  0  0  0  0  0  0  0  0
  -10.9009  -27.9501   30.6043 H   0  0  0  0  0  0  0  0  0  0  0  0
  -10.1494  -25.8749   31.5814 H   0  0  0  0  0  0  0  0  0  0  0  0
  -11.6001  -23.7164   28.4013 H   0  0  0  0  0  0  0  0  0  0  0  0
  -12.4085  -25.7289   27.2214 H   0  0  0  0  0  0  0  0  0  0  0  0
   -9.7023  -32.4928   24.6074 H   0  0  0  0  0  0  0  0  0  0  0  0
  1  2  1  0
  2  3  2  0
  3  4  1  0
  4  5  2  0
  5  6  1  0
  6  7  2  0
  7  8  1  0
  8  9  2  0
  8 10  1  0
 10 11  1  0
 11 12  1  0
 12 13  1  0
 13 14  2  0
 14 15  1  0
 15 16  2  0
 16 17  1  0
 17 18  2  0
  7 19  1  0
 19 20  2  0
 20 21  1  0
 21  2  1  0
 20  4  1  0
 18 13  1  0
  1 22  1  0
  1 23  1  0
  1 24  1  0
  5 25  1  0
  6 26  1  0
 10 27  1  0
 11 28  1  0
 11 29  1  0
 12 30  1  0
 12 31  1  0
 14 32  1  0
 15 33  1  0
 17 34  1  0
 18 35  1  0
 19 36  1  0
M  END
>  <Energy>  (1467) 
117.92251155761791

>  <compound_id>  (1467) 
6794

>  <target_id>  (1467) 
1

>  <reference_id>  (1467) 
82

>  <inspiration_ids>  (1467) 
[68, 82]

>  <energy_score>  (1467) 
10.72779896936646

>  <distance_score>  (1467) 
3.257957885543822

>  <path>  (1467) 
/opt/xchem-fragalysis-2/maxwin/BulkDock/SCRATCH/511018/C6794-P82/C6794-P82.minimised.mol

>  <scratch_subdir>  (1467) 
/opt/xchem-fragalysis-2/maxwin/BulkDock/SCRATCH/511018/C6794-P82

>  <fragmenstein_runtime>  (1467) 
4.742164134979248

>  <fragmenstein_outcome>  (1467) 
too moved

>  <fragmenstein_mode>  (1467) 
expansion

>  <fragmenstein_error>  (1467) 


$$$$
C6805-P94
     RDKit          3D

 43 45  0  0  0  0  0  0  0  0999 V2000
    7.5078  -10.8979   21.0180 C   0  0  0  0  0  0  0  0  0  0  0  0
    7.1244  -10.8961   22.4865 C   0  0  0  0  0  0  0  0  0  0  0  0
    6.6355   -9.9226   22.9793 O   0  0  0  0  0  0  0  0  0  0  0  0
    7.4457  -12.1696   23.0537 N   0  0  0  0  0  0  0  0  0  0  0  0
    7.3698  -12.6452   24.4102 C   0  0  0  0  0  0  0  0  0  0  0  0
    6.3426  -13.7613   24.5641 C   0  0  0  0  0  0  0  0  0  0  0  0
    6.3894  -14.3474   25.9958 C   0  0  0  0  0  0  0  0  0  0  0  0
    5.2223  -15.7348   26.3545 C   0  0  0  0  0  0  0  0  0  0  0  0
    5.0938  -16.8276   27.9322 N   0  0  0  0  0  0  0  0  0  0  0  0
    3.7265  -16.7662   28.3940 C   0  0  0  0  0  0  0  0  0  0  0  0
    3.3473  -15.9277   29.1997 O   0  0  0  0  0  0  0  0  0  0  0  0
    2.6735  -17.8470   27.9918 C   0  0  0  0  0  0  0  0  0  0  0  0
    2.9497  -18.8478   27.0376 C   0  0  0  0  0  0  0  0  0  0  0  0
    2.0566  -19.9077   26.7533 C   0  0  0  0  0  0  0  0  0  0  0  0
    0.8379  -20.0579   27.4168 C   0  0  0  0  0  0  0  0  0  0  0  0
    0.5544  -19.1050   28.3895 C   0  0  0  0  0  0  0  0  0  0  0  0
   -0.5249  -19.0014   29.2411 N   0  0  0  0  0  0  0  0  0  0  0  0
   -0.3308  -17.9083   30.0240 C   0  0  0  0  0  0  0  0  0  0  0  0
    0.7985  -17.3046   29.7267 N   0  0  0  0  0  0  0  0  0  0  0  0
    1.4077  -18.0234   28.7009 C   0  0  0  0  0  0  0  0  0  0  0  0
    5.8171  -16.2797   26.9040 C   0  0  0  0  0  0  0  0  0  0  0  0
    7.5016  -16.2348   26.4641 C   0  0  0  0  0  0  0  0  0  0  0  0
    7.7215  -14.8616   26.1677 O   0  0  0  0  0  0  0  0  0  0  0  0
    8.5212  -11.2870   20.8823 H   0  0  0  0  0  0  0  0  0  0  0  0
    7.4915   -9.8741   20.6331 H   0  0  0  0  0  0  0  0  0  0  0  0
    6.7950  -11.5058   20.4545 H   0  0  0  0  0  0  0  0  0  0  0  0
    7.9276  -12.7289   22.3582 H   0  0  0  0  0  0  0  0  0  0  0  0
    7.1190  -11.8009   25.0602 H   0  0  0  0  0  0  0  0  0  0  0  0
    8.3770  -12.9853   24.6699 H   0  0  0  0  0  0  0  0  0  0  0  0
    6.5743  -14.5596   23.8473 H   0  0  0  0  0  0  0  0  0  0  0  0
    5.3370  -13.4085   24.3231 H   0  0  0  0  0  0  0  0  0  0  0  0
    6.2092  -13.5801   26.7594 H   0  0  0  0  0  0  0  0  0  0  0  0
    4.8528  -16.2471   25.3549 H   0  0  0  0  0  0  0  0  0  0  0  0
    4.3122  -15.0661   26.5331 H   0  0  0  0  0  0  0  0  0  0  0  0
    3.9007  -18.8235   26.5102 H   0  0  0  0  0  0  0  0  0  0  0  0
    2.3452  -20.6457   26.0051 H   0  0  0  0  0  0  0  0  0  0  0  0
    0.1739  -20.8884   27.2048 H   0  0  0  0  0  0  0  0  0  0  0  0
   -1.3121  -19.6317   29.2898 H   0  0  0  0  0  0  0  0  0  0  0  0
   -1.0311  -17.5968   30.7880 H   0  0  0  0  0  0  0  0  0  0  0  0
    6.0233  -17.4147   26.6705 H   0  0  0  0  0  0  0  0  0  0  0  0
    6.3209  -15.7714   27.8571 H   0  0  0  0  0  0  0  0  0  0  0  0
    7.6664  -16.8228   25.5526 H   0  0  0  0  0  0  0  0  0  0  0  0
    8.1477  -16.5813   27.2783 H   0  0  0  0  0  0  0  0  0  0  0  0
  1  2  1  0
  2  3  2  0
  2  4  1  0
  4  5  1  0
  5  6  1  0
  6  7  1  0
  7  8  1  0
  8  9  1  0
  9 10  1  0
 10 11  2  0
 10 12  1  0
 12 13  2  0
 13 14  1  0
 14 15  2  0
 15 16  1  0
 16 17  1  0
 17 18  1  0
 18 19  2  0
 19 20  1  0
  9 21  1  0
 21 22  1  0
 22 23  1  0
 23  7  1  0
 20 12  1  0
 20 16  2  0
  1 24  1  0
  1 25  1  0
  1 26  1  0
  4 27  1  0
  5 28  1  0
  5 29  1  0
  6 30  1  0
  6 31  1  0
  7 32  1  0
  8 33  1  0
  8 34  1  0
 13 35  1  0
 14 36  1  0
 15 37  1  0
 17 38  1  0
 18 39  1  0
 21 40  1  0
 21 41  1  0
 22 42  1  0
 22 43  1  0
M  END
>  <Energy>  (1468) 
667.05536569508251

>  <compound_id>  (1468) 
6805

>  <target_id>  (1468) 
1

>  <reference_id>  (1468) 
94

>  <inspiration_ids>  (1468) 
[94, 97]

>  <energy_score>  (1468) 
579.4439738318332

>  <distance_score>  (1468) 
16.890319513082524

>  <path>  (1468) 
/opt/xchem-fragalysis-2/maxwin/BulkDock/SCRATCH/511018/C6805-P94/C6805-P94.minimised.mol

>  <scratch_subdir>  (1468) 
/opt/xchem-fragalysis-2/maxwin/BulkDock/SCRATCH/511018/C6805-P94

>  <fragmenstein_runtime>  (1468) 
34.43365144729614

>  <fragmenstein_outcome>  (1468) 
too moved

>  <fragmenstein_mode>  (1468) 
expansion

>  <fragmenstein_error>  (1468) 


$$$$
C6805-P97
     RDKit          3D

 43 45  0  0  0  0  0  0  0  0999 V2000
   -3.9682  -15.7790   10.7945 C   0  0  0  0  0  0  0  0  0  0  0  0
   -2.6812  -15.3289   11.4552 C   0  0  0  0  0  0  0  0  0  0  0  0
   -2.0453  -14.4340   10.9823 O   0  0  0  0  0  0  0  0  0  0  0  0
   -2.4606  -16.1133   12.6350 N   0  0  0  0  0  0  0  0  0  0  0  0
   -1.3599  -16.1324   13.5642 C   0  0  0  0  0  0  0  0  0  0  0  0
   -1.4820  -15.0716   14.6560 C   0  0  0  0  0  0  0  0  0  0  0  0
   -2.6264  -15.3123   15.7093 C   0  0  0  0  0  0  0  0  0  0  0  0
   -3.2654  -16.7869   15.9004 C   0  0  0  0  0  0  0  0  0  0  0  0
   -4.6580  -16.8861   16.4252 N   0  0  0  0  0  0  0  0  0  0  0  0
   -5.2248  -18.0047   17.1213 C   0  0  0  0  0  0  0  0  0  0  0  0
   -5.7765  -18.8728   16.4359 O   0  0  0  0  0  0  0  0  0  0  0  0
   -5.1194  -18.3057   18.6139 C   0  0  0  0  0  0  0  0  0  0  0  0
   -3.8463  -18.4367   19.2014 C   0  0  0  0  0  0  0  0  0  0  0  0
   -3.6521  -18.9774   20.4889 C   0  0  0  0  0  0  0  0  0  0  0  0
   -4.7101  -19.4282   21.2765 C   0  0  0  0  0  0  0  0  0  0  0  0
   -5.9763  -19.3003   20.7184 C   0  0  0  0  0  0  0  0  0  0  0  0
   -7.2022  -19.6751   21.2166 N   0  0  0  0  0  0  0  0  0  0  0  0
   -8.1412  -19.3427   20.2929 C   0  0  0  0  0  0  0  0  0  0  0  0
   -7.5965  -18.7885   19.2305 N   0  0  0  0  0  0  0  0  0  0  0  0
   -6.2217  -18.7629   19.4365 C   0  0  0  0  0  0  0  0  0  0  0  0
   -5.4865  -15.7095   16.1800 C   0  0  0  0  0  0  0  0  0  0  0  0
   -4.8723  -14.7365   15.1471 C   0  0  0  0  0  0  0  0  0  0  0  0
   -3.5922  -14.2630   15.5355 O   0  0  0  0  0  0  0  0  0  0  0  0
   -3.8880  -16.8279   10.4950 H   0  0  0  0  0  0  0  0  0  0  0  0
   -4.8079  -15.6478   11.4829 H   0  0  0  0  0  0  0  0  0  0  0  0
   -4.1525  -15.1750    9.9010 H   0  0  0  0  0  0  0  0  0  0  0  0
   -3.1630  -16.8432   12.6826 H   0  0  0  0  0  0  0  0  0  0  0  0
   -1.2696  -17.1396   13.9812 H   0  0  0  0  0  0  0  0  0  0  0  0
   -0.4528  -15.9320   12.9830 H   0  0  0  0  0  0  0  0  0  0  0  0
   -1.6172  -14.0928   14.1824 H   0  0  0  0  0  0  0  0  0  0  0  0
   -0.5184  -15.0416   15.1674 H   0  0  0  0  0  0  0  0  0  0  0  0
   -2.1912  -15.0439   16.6709 H   0  0  0  0  0  0  0  0  0  0  0  0
   -3.3549  -17.2462   14.9114 H   0  0  0  0  0  0  0  0  0  0  0  0
   -2.6205  -17.4578   16.4675 H   0  0  0  0  0  0  0  0  0  0  0  0
   -2.9651  -18.1549   18.6296 H   0  0  0  0  0  0  0  0  0  0  0  0
   -2.6319  -19.0655   20.8612 H   0  0  0  0  0  0  0  0  0  0  0  0
   -4.5450  -19.8653   22.2544 H   0  0  0  0  0  0  0  0  0  0  0  0
   -7.3674  -20.1383   22.0971 H   0  0  0  0  0  0  0  0  0  0  0  0
   -9.1976  -19.5304   20.4314 H   0  0  0  0  0  0  0  0  0  0  0  0
   -5.6567  -15.2007   17.1190 H   0  0  0  0  0  0  0  0  0  0  0  0
   -6.4660  -16.0545   15.8292 H   0  0  0  0  0  0  0  0  0  0  0  0
   -4.8000  -15.2116   14.1622 H   0  0  0  0  0  0  0  0  0  0  0  0
   -5.5291  -13.8672   15.0398 H   0  0  0  0  0  0  0  0  0  0  0  0
  1  2  1  0
  2  3  2  0
  2  4  1  0
  4  5  1  0
  5  6  1  0
  6  7  1  0
  7  8  1  0
  8  9  1  0
  9 10  1  0
 10 11  2  0
 10 12  1  0
 12 13  2  0
 13 14  1  0
 14 15  2  0
 15 16  1  0
 16 17  1  0
 17 18  1  0
 18 19  2  0
 19 20  1  0
  9 21  1  0
 21 22  1  0
 22 23  1  0
 23  7  1  0
 20 12  1  0
 20 16  2  0
  1 24  1  0
  1 25  1  0
  1 26  1  0
  4 27  1  0
  5 28  1  0
  5 29  1  0
  6 30  1  0
  6 31  1  0
  7 32  1  0
  8 33  1  0
  8 34  1  0
 13 35  1  0
 14 36  1  0
 15 37  1  0
 17 38  1  0
 18 39  1  0
 21 40  1  0
 21 41  1  0
 22 42  1  0
 22 43  1  0
M  END
>  <Energy>  (1469) 
108.75918228384127

>  <compound_id>  (1469) 
6805

>  <target_id>  (1469) 
1

>  <reference_id>  (1469) 
97

>  <inspiration_ids>  (1469) 
[94, 97]

>  <energy_score>  (1469) 
21.14779042058302

>  <distance_score>  (1469) 
19.787955155690298

>  <path>  (1469) 
/opt/xchem-fragalysis-2/maxwin/BulkDock/SCRATCH/511018/C6805-P97/C6805-P97.minimised.mol

>  <scratch_subdir>  (1469) 
/opt/xchem-fragalysis-2/maxwin/BulkDock/SCRATCH/511018/C6805-P97

>  <fragmenstein_runtime>  (1469) 
16.20200276374817

>  <fragmenstein_outcome>  (1469) 
too moved

>  <fragmenstein_mode>  (1469) 
expansion

>  <fragmenstein_error>  (1469) 


$$$$
C6815-P94
     RDKit          3D

 43 45  0  0  0  0  0  0  0  0999 V2000
   12.6839   -3.5033   16.2112 C   0  0  0  0  0  0  0  0  0  0  0  0
   12.5349   -4.2542   17.5144 C   0  0  0  0  0  0  0  0  0  0  0  0
   13.4571   -4.2788   18.2811 O   0  0  0  0  0  0  0  0  0  0  0  0
   11.1775   -4.7663   17.6438 N   0  0  0  0  0  0  0  0  0  0  0  0
   10.2903   -5.5587   19.1072 C   0  0  0  0  0  0  0  0  0  0  0  0
    8.7845   -4.5463   19.9202 C   0  0  0  0  0  0  0  0  0  0  0  0
    6.9862   -4.9760   20.4070 C   0  0  0  0  0  0  0  0  0  0  0  0
    6.4219   -4.6166   21.6668 C   0  0  0  0  0  0  0  0  0  0  0  0
    5.2237   -5.2331   22.2071 C   0  0  0  0  0  0  0  0  0  0  0  0
    4.5228   -6.2024   21.4854 C   0  0  0  0  0  0  0  0  0  0  0  0
    3.0085   -7.1679   22.0235 S   0  0  0  0  0  0  0  0  0  0  0  0
    1.8863   -6.5509   21.3413 O   0  0  0  0  0  0  0  0  0  0  0  0
    3.3554   -8.5500   21.7540 O   0  0  0  0  0  0  0  0  0  0  0  0
    2.6194   -7.1343   23.7179 N   0  0  0  0  0  0  0  0  0  0  0  0
    1.2595   -7.8001   24.1844 C   0  0  0  0  0  0  0  0  0  0  0  0
    1.1028   -8.2737   25.4187 N   0  0  0  0  0  0  0  0  0  0  0  0
   -0.2556   -8.5563   25.5914 C   0  0  0  0  0  0  0  0  0  0  0  0
   -0.9811   -9.0548   26.7038 C   0  0  0  0  0  0  0  0  0  0  0  0
   -2.3622   -9.3222   26.5809 C   0  0  0  0  0  0  0  0  0  0  0  0
   -3.0227   -9.1022   25.3745 C   0  0  0  0  0  0  0  0  0  0  0  0
   -2.3307   -8.5778   24.2680 C   0  0  0  0  0  0  0  0  0  0  0  0
   -0.9457   -8.3263   24.4034 C   0  0  0  0  0  0  0  0  0  0  0  0
    0.0351   -7.8609   23.5309 N   0  0  0  0  0  0  0  0  0  0  0  0
    5.0019   -6.4804   20.1847 C   0  0  0  0  0  0  0  0  0  0  0  0
    6.1786   -5.8808   19.6460 C   0  0  0  0  0  0  0  0  0  0  0  0
   13.6949   -3.6601   15.8303 H   0  0  0  0  0  0  0  0  0  0  0  0
   11.9613   -3.8088   15.4544 H   0  0  0  0  0  0  0  0  0  0  0  0
   12.5423   -2.4366   16.4093 H   0  0  0  0  0  0  0  0  0  0  0  0
   10.6913   -4.6429   16.7629 H   0  0  0  0  0  0  0  0  0  0  0  0
   11.4280   -5.3966   19.4613 H   0  0  0  0  0  0  0  0  0  0  0  0
   10.7268   -5.7916   20.1532 H   0  0  0  0  0  0  0  0  0  0  0  0
    9.0101   -3.5887   20.3072 H   0  0  0  0  0  0  0  0  0  0  0  0
    9.4164   -5.1083   20.4840 H   0  0  0  0  0  0  0  0  0  0  0  0
    6.8818   -3.8457   22.2660 H   0  0  0  0  0  0  0  0  0  0  0  0
    4.8712   -4.9252   23.1891 H   0  0  0  0  0  0  0  0  0  0  0  0
    3.3472   -7.5983   24.2654 H   0  0  0  0  0  0  0  0  0  0  0  0
   -0.4638   -9.2322   27.6420 H   0  0  0  0  0  0  0  0  0  0  0  0
   -2.9191   -9.6826   27.4436 H   0  0  0  0  0  0  0  0  0  0  0  0
   -4.0896   -9.3024   25.2994 H   0  0  0  0  0  0  0  0  0  0  0  0
   -2.8482   -8.3734   23.3349 H   0  0  0  0  0  0  0  0  0  0  0  0
   -0.1150   -7.5283   22.5888 H   0  0  0  0  0  0  0  0  0  0  0  0
    4.4679   -7.2050   19.5680 H   0  0  0  0  0  0  0  0  0  0  0  0
    6.4650   -6.2196   18.6564 H   0  0  0  0  0  0  0  0  0  0  0  0
  1  2  1  0
  2  3  2  0
  2  4  1  0
  4  5  1  0
  5  6  1  0
  6  7  1  0
  7  8  2  0
  8  9  1  0
  9 10  2  0
 10 11  1  0
 11 12  2  0
 11 13  2  0
 11 14  1  0
 14 15  1  0
 15 16  2  0
 16 17  1  0
 17 18  2  0
 18 19  1  0
 19 20  2  0
 20 21  1  0
 21 22  2  0
 22 23  1  0
 10 24  1  0
 24 25  2  0
 25  7  1  0
 23 15  1  0
 22 17  1  0
  1 26  1  0
  1 27  1  0
  1 28  1  0
  4 29  1  0
  5 30  1  0
  5 31  1  0
  6 32  1  0
  6 33  1  0
  8 34  1  0
  9 35  1  0
 14 36  1  0
 18 37  1  0
 19 38  1  0
 20 39  1  0
 21 40  1  0
 23 41  1  0
 24 42  1  0
 25 43  1  0
M  END
>  <Energy>  (1470) 
253.34987059336515

>  <compound_id>  (1470) 
6815

>  <target_id>  (1470) 
1

>  <reference_id>  (1470) 
94

>  <inspiration_ids>  (1470) 
[94, 97]

>  <energy_score>  (1470) 
271.97141895088805

>  <distance_score>  (1470) 
14.654262132884305

>  <path>  (1470) 
/opt/xchem-fragalysis-2/maxwin/BulkDock/SCRATCH/511018/C6815-P94/C6815-P94.minimised.mol

>  <scratch_subdir>  (1470) 
/opt/xchem-fragalysis-2/maxwin/BulkDock/SCRATCH/511018/C6815-P94

>  <fragmenstein_runtime>  (1470) 
22.05844020843506

>  <fragmenstein_outcome>  (1470) 
too moved

>  <fragmenstein_mode>  (1470) 
expansion

>  <fragmenstein_error>  (1470) 


$$$$
C6815-P97
     RDKit          3D

 43 45  0  0  0  0  0  0  0  0999 V2000
    6.4670   -9.5892   27.2073 C   0  0  0  0  0  0  0  0  0  0  0  0
    5.6304  -10.8523   27.2201 C   0  0  0  0  0  0  0  0  0  0  0  0
    5.9193  -11.7682   26.5086 O   0  0  0  0  0  0  0  0  0  0  0  0
    4.5446  -10.6879   28.1397 N   0  0  0  0  0  0  0  0  0  0  0  0
    3.5161  -11.6084   28.5651 C   0  0  0  0  0  0  0  0  0  0  0  0
    2.4568  -11.8249   27.4846 C   0  0  0  0  0  0  0  0  0  0  0  0
    1.2631  -12.6501   27.9833 C   0  0  0  0  0  0  0  0  0  0  0  0
   -0.0361  -12.2872   27.6606 C   0  0  0  0  0  0  0  0  0  0  0  0
   -1.1602  -13.1646   27.9024 C   0  0  0  0  0  0  0  0  0  0  0  0
   -1.1258  -14.4779   28.5489 C   0  0  0  0  0  0  0  0  0  0  0  0
   -2.2632  -15.9979   27.4093 S   0  0  0  0  0  0  0  0  0  0  0  0
   -2.3179  -14.9133   26.3606 O   0  0  0  0  0  0  0  0  0  0  0  0
   -1.5119  -17.2615   27.2738 O   0  0  0  0  0  0  0  0  0  0  0  0
   -4.0221  -17.0193   27.5053 N   0  0  0  0  0  0  0  0  0  0  0  0
   -5.4312  -18.5113   27.3898 C   0  0  0  0  0  0  0  0  0  0  0  0
   -5.9199  -19.0339   26.1709 N   0  0  0  0  0  0  0  0  0  0  0  0
   -5.6596  -20.2574   25.9509 C   0  0  0  0  0  0  0  0  0  0  0  0
   -5.1860  -20.9635   24.8472 C   0  0  0  0  0  0  0  0  0  0  0  0
   -5.4910  -22.2868   24.8305 C   0  0  0  0  0  0  0  0  0  0  0  0
   -6.3338  -22.7125   25.8433 C   0  0  0  0  0  0  0  0  0  0  0  0
   -6.8031  -21.9812   26.9936 C   0  0  0  0  0  0  0  0  0  0  0  0
   -6.4486  -20.6291   26.9676 C   0  0  0  0  0  0  0  0  0  0  0  0
   -6.6549  -19.1720   27.7567 N   0  0  0  0  0  0  0  0  0  0  0  0
    0.2144  -14.7401   28.9740 C   0  0  0  0  0  0  0  0  0  0  0  0
    1.3598  -13.8669   28.6791 C   0  0  0  0  0  0  0  0  0  0  0  0
    5.8828   -8.7619   26.7950 H   0  0  0  0  0  0  0  0  0  0  0  0
    7.3519   -9.7418   26.5822 H   0  0  0  0  0  0  0  0  0  0  0  0
    6.7998   -9.3460   28.2205 H   0  0  0  0  0  0  0  0  0  0  0  0
    4.5666   -9.7455   28.5119 H   0  0  0  0  0  0  0  0  0  0  0  0
    3.0714  -11.2001   29.4788 H   0  0  0  0  0  0  0  0  0  0  0  0
    4.0088  -12.5538   28.8131 H   0  0  0  0  0  0  0  0  0  0  0  0
    2.8903  -12.3351   26.6157 H   0  0  0  0  0  0  0  0  0  0  0  0
    2.0981  -10.8490   27.1335 H   0  0  0  0  0  0  0  0  0  0  0  0
   -0.2174  -11.3674   27.1125 H   0  0  0  0  0  0  0  0  0  0  0  0
   -2.0547  -12.8346   27.3766 H   0  0  0  0  0  0  0  0  0  0  0  0
   -3.4393  -17.7273   26.9898 H   0  0  0  0  0  0  0  0  0  0  0  0
   -4.6855  -20.4711   24.0267 H   0  0  0  0  0  0  0  0  0  0  0  0
   -5.2577  -22.9153   23.9787 H   0  0  0  0  0  0  0  0  0  0  0  0
   -6.8941  -23.5560   25.4950 H   0  0  0  0  0  0  0  0  0  0  0  0
   -7.5552  -22.3901   27.6419 H   0  0  0  0  0  0  0  0  0  0  0  0
   -7.1486  -19.0780   28.6293 H   0  0  0  0  0  0  0  0  0  0  0  0
    0.4880  -15.6995   29.4038 H   0  0  0  0  0  0  0  0  0  0  0  0
    2.3426  -14.2539   28.9555 H   0  0  0  0  0  0  0  0  0  0  0  0
  1  2  1  0
  2  3  2  0
  2  4  1  0
  4  5  1  0
  5  6  1  0
  6  7  1  0
  7  8  2  0
  8  9  1  0
  9 10  2  0
 10 11  1  0
 11 12  2  0
 11 13  2  0
 11 14  1  0
 14 15  1  0
 15 16  2  0
 16 17  1  0
 17 18  2  0
 18 19  1  0
 19 20  2  0
 20 21  1  0
 21 22  2  0
 22 23  1  0
 10 24  1  0
 24 25  2  0
 25  7  1  0
 23 15  1  0
 22 17  1  0
  1 26  1  0
  1 27  1  0
  1 28  1  0
  4 29  1  0
  5 30  1  0
  5 31  1  0
  6 32  1  0
  6 33  1  0
  8 34  1  0
  9 35  1  0
 14 36  1  0
 18 37  1  0
 19 38  1  0
 20 39  1  0
 21 40  1  0
 23 41  1  0
 24 42  1  0
 25 43  1  0
M  END
>  <Energy>  (1471) 
451.70239144206028

>  <compound_id>  (1471) 
6815

>  <target_id>  (1471) 
1

>  <reference_id>  (1471) 
97

>  <inspiration_ids>  (1471) 
[94, 97]

>  <energy_score>  (1471) 
470.3239397995868

>  <distance_score>  (1471) 
17.11435910950795

>  <path>  (1471) 
/opt/xchem-fragalysis-2/maxwin/BulkDock/SCRATCH/511018/C6815-P97/C6815-P97.minimised.mol

>  <scratch_subdir>  (1471) 
/opt/xchem-fragalysis-2/maxwin/BulkDock/SCRATCH/511018/C6815-P97

>  <fragmenstein_runtime>  (1471) 
16.46842336654663

>  <fragmenstein_outcome>  (1471) 
too moved

>  <fragmenstein_mode>  (1471) 
expansion

>  <fragmenstein_error>  (1471) 


$$$$
C6815-P94
     RDKit          3D

 43 45  0  0  0  0  0  0  0  0999 V2000
   12.6839   -3.5033   16.2112 C   0  0  0  0  0  0  0  0  0  0  0  0
   12.5349   -4.2542   17.5144 C   0  0  0  0  0  0  0  0  0  0  0  0
   13.4571   -4.2788   18.2811 O   0  0  0  0  0  0  0  0  0  0  0  0
   11.1775   -4.7663   17.6438 N   0  0  0  0  0  0  0  0  0  0  0  0
   10.2903   -5.5587   19.1072 C   0  0  0  0  0  0  0  0  0  0  0  0
    8.7845   -4.5463   19.9202 C   0  0  0  0  0  0  0  0  0  0  0  0
    6.9862   -4.9760   20.4070 C   0  0  0  0  0  0  0  0  0  0  0  0
    6.4219   -4.6166   21.6668 C   0  0  0  0  0  0  0  0  0  0  0  0
    5.2237   -5.2331   22.2071 C   0  0  0  0  0  0  0  0  0  0  0  0
    4.5228   -6.2024   21.4854 C   0  0  0  0  0  0  0  0  0  0  0  0
    3.0085   -7.1679   22.0235 S   0  0  0  0  0  0  0  0  0  0  0  0
    1.8863   -6.5509   21.3413 O   0  0  0  0  0  0  0  0  0  0  0  0
    3.3554   -8.5500   21.7540 O   0  0  0  0  0  0  0  0  0  0  0  0
    2.6194   -7.1343   23.7179 N   0  0  0  0  0  0  0  0  0  0  0  0
    1.2595   -7.8001   24.1844 C   0  0  0  0  0  0  0  0  0  0  0  0
    1.1028   -8.2737   25.4187 N   0  0  0  0  0  0  0  0  0  0  0  0
   -0.2556   -8.5563   25.5914 C   0  0  0  0  0  0  0  0  0  0  0  0
   -0.9811   -9.0548   26.7038 C   0  0  0  0  0  0  0  0  0  0  0  0
   -2.3622   -9.3222   26.5809 C   0  0  0  0  0  0  0  0  0  0  0  0
   -3.0227   -9.1022   25.3745 C   0  0  0  0  0  0  0  0  0  0  0  0
   -2.3307   -8.5778   24.2680 C   0  0  0  0  0  0  0  0  0  0  0  0
   -0.9457   -8.3263   24.4034 C   0  0  0  0  0  0  0  0  0  0  0  0
    0.0351   -7.8609   23.5309 N   0  0  0  0  0  0  0  0  0  0  0  0
    5.0019   -6.4804   20.1847 C   0  0  0  0  0  0  0  0  0  0  0  0
    6.1786   -5.8808   19.6460 C   0  0  0  0  0  0  0  0  0  0  0  0
   13.6949   -3.6601   15.8303 H   0  0  0  0  0  0  0  0  0  0  0  0
   11.9613   -3.8088   15.4544 H   0  0  0  0  0  0  0  0  0  0  0  0
   12.5423   -2.4366   16.4093 H   0  0  0  0  0  0  0  0  0  0  0  0
   10.6913   -4.6429   16.7629 H   0  0  0  0  0  0  0  0  0  0  0  0
   11.4280   -5.3966   19.4613 H   0  0  0  0  0  0  0  0  0  0  0  0
   10.7268   -5.7916   20.1532 H   0  0  0  0  0  0  0  0  0  0  0  0
    9.0101   -3.5887   20.3072 H   0  0  0  0  0  0  0  0  0  0  0  0
    9.4164   -5.1083   20.4840 H   0  0  0  0  0  0  0  0  0  0  0  0
    6.8818   -3.8457   22.2660 H   0  0  0  0  0  0  0  0  0  0  0  0
    4.8712   -4.9252   23.1891 H   0  0  0  0  0  0  0  0  0  0  0  0
    3.3472   -7.5983   24.2654 H   0  0  0  0  0  0  0  0  0  0  0  0
   -0.4638   -9.2322   27.6420 H   0  0  0  0  0  0  0  0  0  0  0  0
   -2.9191   -9.6826   27.4436 H   0  0  0  0  0  0  0  0  0  0  0  0
   -4.0896   -9.3024   25.2994 H   0  0  0  0  0  0  0  0  0  0  0  0
   -2.8482   -8.3734   23.3349 H   0  0  0  0  0  0  0  0  0  0  0  0
   -0.1150   -7.5283   22.5888 H   0  0  0  0  0  0  0  0  0  0  0  0
    4.4679   -7.2050   19.5680 H   0  0  0  0  0  0  0  0  0  0  0  0
    6.4650   -6.2196   18.6564 H   0  0  0  0  0  0  0  0  0  0  0  0
  1  2  1  0
  2  3  2  0
  2  4  1  0
  4  5  1  0
  5  6  1  0
  6  7  1  0
  7  8  2  0
  8  9  1  0
  9 10  2  0
 10 11  1  0
 11 12  2  0
 11 13  2  0
 11 14  1  0
 14 15  1  0
 15 16  2  0
 16 17  1  0
 17 18  2  0
 18 19  1  0
 19 20  2  0
 20 21  1  0
 21 22  2  0
 22 23  1  0
 10 24  1  0
 24 25  2  0
 25  7  1  0
 23 15  1  0
 22 17  1  0
  1 26  1  0
  1 27  1  0
  1 28  1  0
  4 29  1  0
  5 30  1  0
  5 31  1  0
  6 32  1  0
  6 33  1  0
  8 34  1  0
  9 35  1  0
 14 36  1  0
 18 37  1  0
 19 38  1  0
 20 39  1  0
 21 40  1  0
 23 41  1  0
 24 42  1  0
 25 43  1  0
M  END
>  <Energy>  (1472) 
253.34987059336515

>  <compound_id>  (1472) 
6815

>  <target_id>  (1472) 
1

>  <reference_id>  (1472) 
94

>  <inspiration_ids>  (1472) 
[94, 97]

>  <energy_score>  (1472) 
271.97141895088805

>  <distance_score>  (1472) 
14.654262132884305

>  <path>  (1472) 
/opt/xchem-fragalysis-2/maxwin/BulkDock/SCRATCH/511018/C6815-P94/C6815-P94.minimised.mol

>  <scratch_subdir>  (1472) 
/opt/xchem-fragalysis-2/maxwin/BulkDock/SCRATCH/511018/C6815-P94

>  <fragmenstein_runtime>  (1472) 
20.911478996276855

>  <fragmenstein_outcome>  (1472) 
too moved

>  <fragmenstein_mode>  (1472) 
expansion

>  <fragmenstein_error>  (1472) 


$$$$
C6815-P97
     RDKit          3D

 43 45  0  0  0  0  0  0  0  0999 V2000
    6.4670   -9.5892   27.2073 C   0  0  0  0  0  0  0  0  0  0  0  0
    5.6304  -10.8523   27.2201 C   0  0  0  0  0  0  0  0  0  0  0  0
    5.9193  -11.7682   26.5086 O   0  0  0  0  0  0  0  0  0  0  0  0
    4.5446  -10.6879   28.1397 N   0  0  0  0  0  0  0  0  0  0  0  0
    3.5161  -11.6084   28.5651 C   0  0  0  0  0  0  0  0  0  0  0  0
    2.4568  -11.8249   27.4846 C   0  0  0  0  0  0  0  0  0  0  0  0
    1.2631  -12.6501   27.9833 C   0  0  0  0  0  0  0  0  0  0  0  0
   -0.0361  -12.2872   27.6606 C   0  0  0  0  0  0  0  0  0  0  0  0
   -1.1602  -13.1646   27.9024 C   0  0  0  0  0  0  0  0  0  0  0  0
   -1.1258  -14.4779   28.5489 C   0  0  0  0  0  0  0  0  0  0  0  0
   -2.2632  -15.9979   27.4093 S   0  0  0  0  0  0  0  0  0  0  0  0
   -2.3179  -14.9133   26.3606 O   0  0  0  0  0  0  0  0  0  0  0  0
   -1.5119  -17.2615   27.2738 O   0  0  0  0  0  0  0  0  0  0  0  0
   -4.0221  -17.0193   27.5053 N   0  0  0  0  0  0  0  0  0  0  0  0
   -5.4312  -18.5113   27.3898 C   0  0  0  0  0  0  0  0  0  0  0  0
   -5.9199  -19.0339   26.1709 N   0  0  0  0  0  0  0  0  0  0  0  0
   -5.6596  -20.2574   25.9509 C   0  0  0  0  0  0  0  0  0  0  0  0
   -5.1860  -20.9635   24.8472 C   0  0  0  0  0  0  0  0  0  0  0  0
   -5.4910  -22.2868   24.8305 C   0  0  0  0  0  0  0  0  0  0  0  0
   -6.3338  -22.7125   25.8433 C   0  0  0  0  0  0  0  0  0  0  0  0
   -6.8031  -21.9812   26.9936 C   0  0  0  0  0  0  0  0  0  0  0  0
   -6.4486  -20.6291   26.9676 C   0  0  0  0  0  0  0  0  0  0  0  0
   -6.6549  -19.1720   27.7567 N   0  0  0  0  0  0  0  0  0  0  0  0
    0.2144  -14.7401   28.9740 C   0  0  0  0  0  0  0  0  0  0  0  0
    1.3598  -13.8669   28.6791 C   0  0  0  0  0  0  0  0  0  0  0  0
    5.8828   -8.7619   26.7950 H   0  0  0  0  0  0  0  0  0  0  0  0
    7.3519   -9.7418   26.5822 H   0  0  0  0  0  0  0  0  0  0  0  0
    6.7998   -9.3460   28.2205 H   0  0  0  0  0  0  0  0  0  0  0  0
    4.5666   -9.7455   28.5119 H   0  0  0  0  0  0  0  0  0  0  0  0
    3.0714  -11.2001   29.4788 H   0  0  0  0  0  0  0  0  0  0  0  0
    4.0088  -12.5538   28.8131 H   0  0  0  0  0  0  0  0  0  0  0  0
    2.8903  -12.3351   26.6157 H   0  0  0  0  0  0  0  0  0  0  0  0
    2.0981  -10.8490   27.1335 H   0  0  0  0  0  0  0  0  0  0  0  0
   -0.2174  -11.3674   27.1125 H   0  0  0  0  0  0  0  0  0  0  0  0
   -2.0547  -12.8346   27.3766 H   0  0  0  0  0  0  0  0  0  0  0  0
   -3.4393  -17.7273   26.9898 H   0  0  0  0  0  0  0  0  0  0  0  0
   -4.6855  -20.4711   24.0267 H   0  0  0  0  0  0  0  0  0  0  0  0
   -5.2577  -22.9153   23.9787 H   0  0  0  0  0  0  0  0  0  0  0  0
   -6.8941  -23.5560   25.4950 H   0  0  0  0  0  0  0  0  0  0  0  0
   -7.5552  -22.3901   27.6419 H   0  0  0  0  0  0  0  0  0  0  0  0
   -7.1486  -19.0780   28.6293 H   0  0  0  0  0  0  0  0  0  0  0  0
    0.4880  -15.6995   29.4038 H   0  0  0  0  0  0  0  0  0  0  0  0
    2.3426  -14.2539   28.9555 H   0  0  0  0  0  0  0  0  0  0  0  0
  1  2  1  0
  2  3  2  0
  2  4  1  0
  4  5  1  0
  5  6  1  0
  6  7  1  0
  7  8  2  0
  8  9  1  0
  9 10  2  0
 10 11  1  0
 11 12  2  0
 11 13  2  0
 11 14  1  0
 14 15  1  0
 15 16  2  0
 16 17  1  0
 17 18  2  0
 18 19  1  0
 19 20  2  0
 20 21  1  0
 21 22  2  0
 22 23  1  0
 10 24  1  0
 24 25  2  0
 25  7  1  0
 23 15  1  0
 22 17  1  0
  1 26  1  0
  1 27  1  0
  1 28  1  0
  4 29  1  0
  5 30  1  0
  5 31  1  0
  6 32  1  0
  6 33  1  0
  8 34  1  0
  9 35  1  0
 14 36  1  0
 18 37  1  0
 19 38  1  0
 20 39  1  0
 21 40  1  0
 23 41  1  0
 24 42  1  0
 25 43  1  0
M  END
>  <Energy>  (1473) 
451.70239144206028

>  <compound_id>  (1473) 
6815

>  <target_id>  (1473) 
1

>  <reference_id>  (1473) 
97

>  <inspiration_ids>  (1473) 
[94, 97]

>  <energy_score>  (1473) 
470.3239397995868

>  <distance_score>  (1473) 
17.11435910950795

>  <path>  (1473) 
/opt/xchem-fragalysis-2/maxwin/BulkDock/SCRATCH/511018/C6815-P97/C6815-P97.minimised.mol

>  <scratch_subdir>  (1473) 
/opt/xchem-fragalysis-2/maxwin/BulkDock/SCRATCH/511018/C6815-P97

>  <fragmenstein_runtime>  (1473) 
14.684433937072754

>  <fragmenstein_outcome>  (1473) 
too moved

>  <fragmenstein_mode>  (1473) 
expansion

>  <fragmenstein_error>  (1473) 


$$$$
C6822-P94
     RDKit          3D

 45 47  0  0  0  0  0  0  0  0999 V2000
    2.9274   -3.0048   21.3719 C   0  0  0  0  0  0  0  0  0  0  0  0
    1.8191   -3.7471   20.6537 C   0  0  0  0  0  0  0  0  0  0  0  0
    1.6396   -3.5701   19.4851 O   0  0  0  0  0  0  0  0  0  0  0  0
    1.1347   -4.5902   21.5891 N   0  0  0  0  0  0  0  0  0  0  0  0
    0.0804   -5.5569   21.3965 C   0  0  0  0  0  0  0  0  0  0  0  0
    0.6729   -6.9379   21.1071 C   0  0  0  0  0  0  0  0  0  0  0  0
   -0.3318   -8.0787   20.8042 C   0  0  0  0  0  0  0  0  0  0  0  0
   -1.6833   -7.8071   21.3308 C   0  0  0  0  0  0  0  0  0  0  0  0
   -2.1348   -9.2312   21.2492 C   0  0  0  0  0  0  0  0  0  0  0  0
   -1.4336  -10.2885   22.0371 N   0  0  0  0  0  0  0  0  0  0  0  0
   -1.2306  -11.9575   21.7566 C   0  0  0  0  0  0  0  0  0  0  0  0
   -1.6146  -12.4701   20.7068 O   0  0  0  0  0  0  0  0  0  0  0  0
   -0.4860  -13.5285   23.1804 C   0  0  0  0  0  0  0  0  0  0  0  0
   -1.4531  -13.9615   25.0135 C   0  0  0  0  0  0  0  0  0  0  0  0
   -2.2332  -15.2097   24.9265 C   0  0  0  0  0  0  0  0  0  0  0  0
   -3.3728  -15.8733   25.5494 C   0  0  0  0  0  0  0  0  0  0  0  0
   -4.1093  -15.0710   26.3691 C   0  0  0  0  0  0  0  0  0  0  0  0
   -5.1812  -15.2876   27.1922 N   0  0  0  0  0  0  0  0  0  0  0  0
   -5.6019  -14.0639   27.6254 C   0  0  0  0  0  0  0  0  0  0  0  0
   -4.8723  -13.0912   27.1127 N   0  0  0  0  0  0  0  0  0  0  0  0
   -3.8962  -13.7032   26.3512 C   0  0  0  0  0  0  0  0  0  0  0  0
   -2.7534  -13.1634   25.5746 C   0  0  0  0  0  0  0  0  0  0  0  0
   -0.1937   -9.4732   21.5434 C   0  0  0  0  0  0  0  0  0  0  0  0
    3.6703   -3.7163   21.7437 H   0  0  0  0  0  0  0  0  0  0  0  0
    3.4192   -2.3176   20.6770 H   0  0  0  0  0  0  0  0  0  0  0  0
    2.5151   -2.4234   22.2013 H   0  0  0  0  0  0  0  0  0  0  0  0
    1.6131   -4.5498   22.4822 H   0  0  0  0  0  0  0  0  0  0  0  0
   -0.5170   -5.5541   22.3118 H   0  0  0  0  0  0  0  0  0  0  0  0
   -0.5365   -5.2219   20.5565 H   0  0  0  0  0  0  0  0  0  0  0  0
    1.2947   -7.2273   21.9591 H   0  0  0  0  0  0  0  0  0  0  0  0
    1.2980   -6.8063   20.2233 H   0  0  0  0  0  0  0  0  0  0  0  0
   -0.3760   -8.2205   19.7178 H   0  0  0  0  0  0  0  0  0  0  0  0
   -1.7067   -7.4547   22.3677 H   0  0  0  0  0  0  0  0  0  0  0  0
   -2.2756   -7.1403   20.6983 H   0  0  0  0  0  0  0  0  0  0  0  0
   -3.1679   -9.2776   21.6201 H   0  0  0  0  0  0  0  0  0  0  0  0
   -2.2246   -9.5929   20.2103 H   0  0  0  0  0  0  0  0  0  0  0  0
   -0.6755  -14.5080   22.6352 H   0  0  0  0  0  0  0  0  0  0  0  0
    0.4315  -14.0084   23.5681 H   0  0  0  0  0  0  0  0  0  0  0  0
   -1.8123  -15.6735   24.1052 H   0  0  0  0  0  0  0  0  0  0  0  0
   -3.6255  -16.9030   25.3387 H   0  0  0  0  0  0  0  0  0  0  0  0
   -5.5904  -16.1793   27.4304 H   0  0  0  0  0  0  0  0  0  0  0  0
   -6.4405  -13.9370   28.2969 H   0  0  0  0  0  0  0  0  0  0  0  0
   -2.7983  -12.0768   25.5300 H   0  0  0  0  0  0  0  0  0  0  0  0
    0.6068  -10.1025   21.2242 H   0  0  0  0  0  0  0  0  0  0  0  0
    0.1036   -9.0697   22.5071 H   0  0  0  0  0  0  0  0  0  0  0  0
  1  2  1  0
  2  3  2  0
  2  4  1  0
  4  5  1  0
  5  6  1  0
  6  7  1  0
  7  8  1  0
  8  9  1  0
  9 10  1  0
 10 11  1  0
 11 12  2  0
 11 13  1  0
 13 14  1  0
 14 15  2  0
 15 16  1  0
 16 17  2  0
 17 18  1  0
 18 19  1  0
 19 20  2  0
 20 21  1  0
 21 22  2  0
 10 23  1  0
 23  7  1  0
 22 14  1  0
 21 17  1  0
  1 24  1  0
  1 25  1  0
  1 26  1  0
  4 27  1  0
  5 28  1  0
  5 29  1  0
  6 30  1  0
  6 31  1  0
  7 32  1  0
  8 33  1  0
  8 34  1  0
  9 35  1  0
  9 36  1  0
 13 37  1  0
 13 38  1  0
 15 39  1  0
 16 40  1  0
 18 41  1  0
 19 42  1  0
 22 43  1  0
 23 44  1  0
 23 45  1  0
M  END
>  <Energy>  (1474) 
489.89138036713189

>  <compound_id>  (1474) 
6822

>  <target_id>  (1474) 
1

>  <reference_id>  (1474) 
94

>  <inspiration_ids>  (1474) 
[94, 97]

>  <energy_score>  (1474) 
448.94505544988385

>  <distance_score>  (1474) 
15.89312151579493

>  <path>  (1474) 
/opt/xchem-fragalysis-2/maxwin/BulkDock/SCRATCH/511018/C6822-P94/C6822-P94.minimised.mol

>  <scratch_subdir>  (1474) 
/opt/xchem-fragalysis-2/maxwin/BulkDock/SCRATCH/511018/C6822-P94

>  <fragmenstein_runtime>  (1474) 
26.470161199569702

>  <fragmenstein_outcome>  (1474) 
too moved

>  <fragmenstein_mode>  (1474) 
expansion

>  <fragmenstein_error>  (1474) 


$$$$
C6822-P97
     RDKit          3D

 45 47  0  0  0  0  0  0  0  0999 V2000
    8.4106  -17.2744   28.5635 C   0  0  0  0  0  0  0  0  0  0  0  0
    8.1647  -15.8614   29.0570 C   0  0  0  0  0  0  0  0  0  0  0  0
    8.4173  -15.5879   30.1935 O   0  0  0  0  0  0  0  0  0  0  0  0
    7.6177  -15.0603   27.9998 N   0  0  0  0  0  0  0  0  0  0  0  0
    7.2926  -13.6603   27.9492 C   0  0  0  0  0  0  0  0  0  0  0  0
    5.8100  -13.3559   27.7269 C   0  0  0  0  0  0  0  0  0  0  0  0
    4.7841  -13.5690   28.9041 C   0  0  0  0  0  0  0  0  0  0  0  0
    5.3232  -13.9964   30.2242 C   0  0  0  0  0  0  0  0  0  0  0  0
    4.6968  -15.3744   30.3172 C   0  0  0  0  0  0  0  0  0  0  0  0
    3.2195  -15.3510   30.0885 N   0  0  0  0  0  0  0  0  0  0  0  0
    2.2700  -16.4516   29.8200 C   0  0  0  0  0  0  0  0  0  0  0  0
    2.4695  -17.6269   29.6315 O   0  0  0  0  0  0  0  0  0  0  0  0
    0.7821  -15.9519   29.9120 C   0  0  0  0  0  0  0  0  0  0  0  0
   -0.4006  -16.9846   30.0672 C   0  0  0  0  0  0  0  0  0  0  0  0
   -1.3009  -16.8757   31.1548 C   0  0  0  0  0  0  0  0  0  0  0  0
   -2.4614  -17.6782   31.3091 C   0  0  0  0  0  0  0  0  0  0  0  0
   -2.7254  -18.6087   30.3082 C   0  0  0  0  0  0  0  0  0  0  0  0
   -3.7477  -19.5053   30.1028 N   0  0  0  0  0  0  0  0  0  0  0  0
   -3.4842  -20.1529   28.9288 C   0  0  0  0  0  0  0  0  0  0  0  0
   -2.3745  -19.7337   28.3681 N   0  0  0  0  0  0  0  0  0  0  0  0
   -1.8795  -18.7706   29.2155 C   0  0  0  0  0  0  0  0  0  0  0  0
   -0.7102  -17.9673   29.1007 C   0  0  0  0  0  0  0  0  0  0  0  0
    3.6746  -14.6828   28.7537 C   0  0  0  0  0  0  0  0  0  0  0  0
    9.2431  -17.7093   29.1252 H   0  0  0  0  0  0  0  0  0  0  0  0
    7.5139  -17.8761   28.7288 H   0  0  0  0  0  0  0  0  0  0  0  0
    8.6823  -17.2936   27.5044 H   0  0  0  0  0  0  0  0  0  0  0  0
    7.4618  -15.6471   27.1870 H   0  0  0  0  0  0  0  0  0  0  0  0
    7.6772  -13.1633   28.8448 H   0  0  0  0  0  0  0  0  0  0  0  0
    7.8582  -13.2599   27.0997 H   0  0  0  0  0  0  0  0  0  0  0  0
    5.4537  -13.8980   26.8449 H   0  0  0  0  0  0  0  0  0  0  0  0
    5.7845  -12.2877   27.4818 H   0  0  0  0  0  0  0  0  0  0  0  0
    4.2717  -12.6133   29.0647 H   0  0  0  0  0  0  0  0  0  0  0  0
    6.4024  -14.0141   30.3450 H   0  0  0  0  0  0  0  0  0  0  0  0
    4.9246  -13.3576   31.0228 H   0  0  0  0  0  0  0  0  0  0  0  0
    4.8134  -15.7438   31.3446 H   0  0  0  0  0  0  0  0  0  0  0  0
    5.1872  -16.1447   29.7017 H   0  0  0  0  0  0  0  0  0  0  0  0
    0.5778  -15.3145   29.0497 H   0  0  0  0  0  0  0  0  0  0  0  0
    0.7439  -15.2943   30.7911 H   0  0  0  0  0  0  0  0  0  0  0  0
   -1.1102  -16.1255   31.9233 H   0  0  0  0  0  0  0  0  0  0  0  0
   -3.1203  -17.5487   32.1614 H   0  0  0  0  0  0  0  0  0  0  0  0
   -4.5698  -19.6376   30.6817 H   0  0  0  0  0  0  0  0  0  0  0  0
   -4.1269  -20.9104   28.5128 H   0  0  0  0  0  0  0  0  0  0  0  0
   -0.0656  -18.1170   28.2402 H   0  0  0  0  0  0  0  0  0  0  0  0
    3.9669  -15.4635   28.0398 H   0  0  0  0  0  0  0  0  0  0  0  0
    2.7686  -14.2243   28.3394 H   0  0  0  0  0  0  0  0  0  0  0  0
  1  2  1  0
  2  3  2  0
  2  4  1  0
  4  5  1  0
  5  6  1  0
  6  7  1  0
  7  8  1  0
  8  9  1  0
  9 10  1  0
 10 11  1  0
 11 12  2  0
 11 13  1  0
 13 14  1  0
 14 15  2  0
 15 16  1  0
 16 17  2  0
 17 18  1  0
 18 19  1  0
 19 20  2  0
 20 21  1  0
 21 22  2  0
 10 23  1  0
 23  7  1  0
 22 14  1  0
 21 17  1  0
  1 24  1  0
  1 25  1  0
  1 26  1  0
  4 27  1  0
  5 28  1  0
  5 29  1  0
  6 30  1  0
  6 31  1  0
  7 32  1  0
  8 33  1  0
  8 34  1  0
  9 35  1  0
  9 36  1  0
 13 37  1  0
 13 38  1  0
 15 39  1  0
 16 40  1  0
 18 41  1  0
 19 42  1  0
 22 43  1  0
 23 44  1  0
 23 45  1  0
M  END
>  <Energy>  (1475) 
89.884621745560523

>  <compound_id>  (1475) 
6822

>  <target_id>  (1475) 
1

>  <reference_id>  (1475) 
97

>  <inspiration_ids>  (1475) 
[94, 97]

>  <energy_score>  (1475) 
48.938296828321086

>  <distance_score>  (1475) 
18.31399406730082

>  <path>  (1475) 
/opt/xchem-fragalysis-2/maxwin/BulkDock/SCRATCH/511018/C6822-P97/C6822-P97.minimised.mol

>  <scratch_subdir>  (1475) 
/opt/xchem-fragalysis-2/maxwin/BulkDock/SCRATCH/511018/C6822-P97

>  <fragmenstein_runtime>  (1475) 
15.445957899093628

>  <fragmenstein_outcome>  (1475) 
too moved

>  <fragmenstein_mode>  (1475) 
expansion

>  <fragmenstein_error>  (1475) 


$$$$
C6827-P94
     RDKit          3D

 47 50  0  0  0  0  0  0  0  0999 V2000
    2.2104   -8.4019   11.2389 C   0  0  0  0  0  0  0  0  0  0  0  0
    3.2414   -9.3048   11.8846 C   0  0  0  0  0  0  0  0  0  0  0  0
    2.8927  -10.2293   12.5579 O   0  0  0  0  0  0  0  0  0  0  0  0
    4.5487   -8.8307   11.5536 N   0  0  0  0  0  0  0  0  0  0  0  0
    5.8537   -9.3700   11.8470 C   0  0  0  0  0  0  0  0  0  0  0  0
    6.6151   -9.7398   10.5733 C   0  0  0  0  0  0  0  0  0  0  0  0
    6.9003   -8.5144    9.6697 C   0  0  0  0  0  0  0  0  0  0  0  0
    5.9785   -7.5829    9.4589 N   0  0  0  0  0  0  0  0  0  0  0  0
    6.3637   -6.8925    8.3415 C   0  0  0  0  0  0  0  0  0  0  0  0
    5.7218   -5.8497    7.6627 C   0  0  0  0  0  0  0  0  0  0  0  0
    6.2179   -5.4483    6.4167 C   0  0  0  0  0  0  0  0  0  0  0  0
    7.3319   -6.0768    5.8608 C   0  0  0  0  0  0  0  0  0  0  0  0
    8.0155   -7.0812    6.5555 C   0  0  0  0  0  0  0  0  0  0  0  0
    7.5323   -7.4206    7.8279 C   0  0  0  0  0  0  0  0  0  0  0  0
    8.0108   -8.2041    8.8692 N   0  0  0  0  0  0  0  0  0  0  0  0
    9.4378   -8.5185    8.9987 C   0  0  0  0  0  0  0  0  0  0  0  0
   10.2951   -7.3112    9.2351 C   0  0  0  0  0  0  0  0  0  0  0  0
   10.3618   -6.0990    8.5652 C   0  0  0  0  0  0  0  0  0  0  0  0
   11.4139   -5.1814    9.0659 C   0  0  0  0  0  0  0  0  0  0  0  0
   12.4155   -5.0050   10.4801 C   0  0  0  0  0  0  0  0  0  0  0  0
   13.6640   -3.9658   11.2827 C   0  0  0  0  0  0  0  0  0  0  0  0
   13.4851   -3.0842   12.4052 C   0  0  0  0  0  0  0  0  0  0  0  0
   12.3071   -3.3781   13.0258 C   0  0  0  0  0  0  0  0  0  0  0  0
   11.6553   -4.6217   12.5075 C   0  0  0  0  0  0  0  0  0  0  0  0
   11.8486   -5.8012   11.2953 C   0  0  0  0  0  0  0  0  0  0  0  0
   11.1913   -7.2383   10.4362 C   0  0  0  0  0  0  0  0  0  0  0  0
    2.3010   -8.4519   10.1501 H   0  0  0  0  0  0  0  0  0  0  0  0
    2.3474   -7.3719   11.5804 H   0  0  0  0  0  0  0  0  0  0  0  0
    1.2059   -8.7310   11.5214 H   0  0  0  0  0  0  0  0  0  0  0  0
    4.4655   -8.0638   10.8848 H   0  0  0  0  0  0  0  0  0  0  0  0
    6.3843   -8.6000   12.4103 H   0  0  0  0  0  0  0  0  0  0  0  0
    5.7296  -10.2506   12.4850 H   0  0  0  0  0  0  0  0  0  0  0  0
    7.5519  -10.2482   10.8014 H   0  0  0  0  0  0  0  0  0  0  0  0
    6.0150  -10.4386    9.9765 H   0  0  0  0  0  0  0  0  0  0  0  0
    4.8182   -5.4110    8.0707 H   0  0  0  0  0  0  0  0  0  0  0  0
    5.7082   -4.6614    5.8661 H   0  0  0  0  0  0  0  0  0  0  0  0
    7.6865   -5.7689    4.8794 H   0  0  0  0  0  0  0  0  0  0  0  0
    8.9056   -7.5402    6.1382 H   0  0  0  0  0  0  0  0  0  0  0  0
    9.7441   -9.0284    8.0789 H   0  0  0  0  0  0  0  0  0  0  0  0
    9.5273   -9.2338    9.8215 H   0  0  0  0  0  0  0  0  0  0  0  0
    9.8670   -5.8641    7.6392 H   0  0  0  0  0  0  0  0  0  0  0  0
   11.6187   -4.4695    8.2364 H   0  0  0  0  0  0  0  0  0  0  0  0
   14.4201   -3.4703   10.6407 H   0  0  0  0  0  0  0  0  0  0  0  0
   14.1548   -2.2782   12.6577 H   0  0  0  0  0  0  0  0  0  0  0  0
   11.9120   -2.8443   13.8802 H   0  0  0  0  0  0  0  0  0  0  0  0
   10.9185   -4.8045   13.2742 H   0  0  0  0  0  0  0  0  0  0  0  0
   11.5731   -8.2634   10.6478 H   0  0  0  0  0  0  0  0  0  0  0  0
  1  2  1  0
  2  3  2  0
  2  4  1  0
  4  5  1  0
  5  6  1  0
  6  7  1  0
  7  8  2  0
  8  9  1  0
  9 10  2  0
 10 11  1  0
 11 12  2  0
 12 13  1  0
 13 14  2  0
 14 15  1  0
 15 16  1  0
 16 17  1  0
 17 18  2  0
 18 19  1  0
 19 20  2  0
 20 21  1  0
 21 22  2  0
 22 23  1  0
 23 24  2  0
 24 25  1  0
 25 26  2  0
 15  7  1  0
 26 17  1  0
 14  9  1  0
 25 20  1  0
  1 27  1  0
  1 28  1  0
  1 29  1  0
  4 30  1  0
  5 31  1  0
  5 32  1  0
  6 33  1  0
  6 34  1  0
 10 35  1  0
 11 36  1  0
 12 37  1  0
 13 38  1  0
 16 39  1  0
 16 40  1  0
 18 41  1  0
 19 42  1  0
 21 43  1  0
 22 44  1  0
 23 45  1  0
 24 46  1  0
 26 47  1  0
M  END
>  <Energy>  (1476) 
306.66710598132272

>  <compound_id>  (1476) 
6827

>  <target_id>  (1476) 
1

>  <reference_id>  (1476) 
94

>  <inspiration_ids>  (1476) 
[94, 97]

>  <energy_score>  (1476) 
238.1887060804969

>  <distance_score>  (1476) 
19.272496059639135

>  <path>  (1476) 
/opt/xchem-fragalysis-2/maxwin/BulkDock/SCRATCH/511018/C6827-P94/C6827-P94.minimised.mol

>  <scratch_subdir>  (1476) 
/opt/xchem-fragalysis-2/maxwin/BulkDock/SCRATCH/511018/C6827-P94

>  <fragmenstein_runtime>  (1476) 
39.50438570976257

>  <fragmenstein_outcome>  (1476) 
too moved

>  <fragmenstein_mode>  (1476) 
expansion

>  <fragmenstein_error>  (1476) 


$$$$
C6827-P97
     RDKit          3D

 47 50  0  0  0  0  0  0  0  0999 V2000
    4.7220  -12.7734   23.0733 C   0  0  0  0  0  0  0  0  0  0  0  0
    5.1314  -12.9639   21.6270 C   0  0  0  0  0  0  0  0  0  0  0  0
    5.0350  -14.0367   21.1085 O   0  0  0  0  0  0  0  0  0  0  0  0
    5.6345  -11.7156   21.1172 N   0  0  0  0  0  0  0  0  0  0  0  0
    6.1026  -11.3364   19.7590 C   0  0  0  0  0  0  0  0  0  0  0  0
    7.3968  -10.4261   19.2059 C   0  0  0  0  0  0  0  0  0  0  0  0
    8.0589   -8.5522   18.9705 C   0  0  0  0  0  0  0  0  0  0  0  0
    7.1494   -7.1228   18.1114 N   0  0  0  0  0  0  0  0  0  0  0  0
    7.6762   -6.6579   16.2116 C   0  0  0  0  0  0  0  0  0  0  0  0
    7.5570   -5.2846   15.9749 C   0  0  0  0  0  0  0  0  0  0  0  0
    8.8777   -4.2808   15.1170 C   0  0  0  0  0  0  0  0  0  0  0  0
   10.5451   -4.8479   14.8644 C   0  0  0  0  0  0  0  0  0  0  0  0
   10.8939   -6.5384   15.6341 C   0  0  0  0  0  0  0  0  0  0  0  0
    9.4530   -7.7219   16.1550 C   0  0  0  0  0  0  0  0  0  0  0  0
    8.9727   -8.6194   18.1457 N   0  0  0  0  0  0  0  0  0  0  0  0
    9.7409   -6.5176   18.6778 C   0  0  0  0  0  0  0  0  0  0  0  0
   11.0999   -5.1414   17.8053 C   0  0  0  0  0  0  0  0  0  0  0  0
   11.4332   -4.1031   16.8841 C   0  0  0  0  0  0  0  0  0  0  0  0
   12.6849   -3.4122   16.6101 C   0  0  0  0  0  0  0  0  0  0  0  0
   13.8273   -3.5600   17.3706 C   0  0  0  0  0  0  0  0  0  0  0  0
   15.0175   -2.8928   17.0523 C   0  0  0  0  0  0  0  0  0  0  0  0
   16.1096   -2.9861   17.9066 C   0  0  0  0  0  0  0  0  0  0  0  0
   16.0064   -3.7249   19.0826 C   0  0  0  0  0  0  0  0  0  0  0  0
   14.8168   -4.3823   19.3971 C   0  0  0  0  0  0  0  0  0  0  0  0
   13.7200   -4.3162   18.5261 C   0  0  0  0  0  0  0  0  0  0  0  0
   12.4840   -4.9802   18.7531 C   0  0  0  0  0  0  0  0  0  0  0  0
    5.6014  -12.5393   23.6797 H   0  0  0  0  0  0  0  0  0  0  0  0
    4.2683  -13.6947   23.4504 H   0  0  0  0  0  0  0  0  0  0  0  0
    3.9859  -11.9684   23.1537 H   0  0  0  0  0  0  0  0  0  0  0  0
    5.6406  -11.0350   21.8622 H   0  0  0  0  0  0  0  0  0  0  0  0
    6.4323  -12.3342   19.7106 H   0  0  0  0  0  0  0  0  0  0  0  0
    5.4667  -11.6390   18.9489 H   0  0  0  0  0  0  0  0  0  0  0  0
    7.3382  -10.5796   18.1391 H   0  0  0  0  0  0  0  0  0  0  0  0
    8.2058  -11.0620   19.3564 H   0  0  0  0  0  0  0  0  0  0  0  0
    6.4909   -5.3215   16.0351 H   0  0  0  0  0  0  0  0  0  0  0  0
    8.7186   -5.1510   14.4072 H   0  0  0  0  0  0  0  0  0  0  0  0
   11.2728   -4.1065   14.5294 H   0  0  0  0  0  0  0  0  0  0  0  0
   11.8801   -6.7192   16.1030 H   0  0  0  0  0  0  0  0  0  0  0  0
    9.9119   -5.9966   19.7521 H   0  0  0  0  0  0  0  0  0  0  0  0
    8.9799   -6.0322   19.1118 H   0  0  0  0  0  0  0  0  0  0  0  0
   10.6953   -3.5159   16.3694 H   0  0  0  0  0  0  0  0  0  0  0  0
   12.6810   -2.6795   15.8010 H   0  0  0  0  0  0  0  0  0  0  0  0
   15.0976   -2.2957   16.1477 H   0  0  0  0  0  0  0  0  0  0  0  0
   17.0370   -2.4739   17.6650 H   0  0  0  0  0  0  0  0  0  0  0  0
   16.8547   -3.7880   19.7596 H   0  0  0  0  0  0  0  0  0  0  0  0
   14.7534   -4.9513   20.3210 H   0  0  0  0  0  0  0  0  0  0  0  0
   12.3995   -5.4370   19.7513 H   0  0  0  0  0  0  0  0  0  0  0  0
  1  2  1  0
  2  3  2  0
  2  4  1  0
  4  5  1  0
  5  6  1  0
  6  7  1  0
  7  8  2  0
  8  9  1  0
  9 10  2  0
 10 11  1  0
 11 12  2  0
 12 13  1  0
 13 14  2  0
 14 15  1  0
 15 16  1  0
 16 17  1  0
 17 18  2  0
 18 19  1  0
 19 20  2  0
 20 21  1  0
 21 22  2  0
 22 23  1  0
 23 24  2  0
 24 25  1  0
 25 26  2  0
 15  7  1  0
 26 17  1  0
 14  9  1  0
 25 20  1  0
  1 27  1  0
  1 28  1  0
  1 29  1  0
  4 30  1  0
  5 31  1  0
  5 32  1  0
  6 33  1  0
  6 34  1  0
 10 35  1  0
 11 36  1  0
 12 37  1  0
 13 38  1  0
 16 39  1  0
 16 40  1  0
 18 41  1  0
 19 42  1  0
 21 43  1  0
 22 44  1  0
 23 45  1  0
 24 46  1  0
 26 47  1  0
M  END
>  <Energy>  (1477) 
1997.2354853412469

>  <compound_id>  (1477) 
6827

>  <target_id>  (1477) 
1

>  <reference_id>  (1477) 
97

>  <inspiration_ids>  (1477) 
[94, 97]

>  <energy_score>  (1477) 
1928.7570854404407

>  <distance_score>  (1477) 
15.412470371499102

>  <path>  (1477) 
/opt/xchem-fragalysis-2/maxwin/BulkDock/SCRATCH/511018/C6827-P97/C6827-P97.minimised.mol

>  <scratch_subdir>  (1477) 
/opt/xchem-fragalysis-2/maxwin/BulkDock/SCRATCH/511018/C6827-P97

>  <fragmenstein_runtime>  (1477) 
23.089411735534668

>  <fragmenstein_outcome>  (1477) 
too moved

>  <fragmenstein_mode>  (1477) 
expansion

>  <fragmenstein_error>  (1477) 


$$$$
C6830-P94
     RDKit          3D

 47 50  0  0  0  0  0  0  0  0999 V2000
   -1.0505  -10.1077   18.7052 C   0  0  0  0  0  0  0  0  0  0  0  0
    0.4316   -9.8901   18.9324 C   0  0  0  0  0  0  0  0  0  0  0  0
    0.8645   -9.8309   20.0453 O   0  0  0  0  0  0  0  0  0  0  0  0
    1.0929   -9.8016   17.6649 N   0  0  0  0  0  0  0  0  0  0  0  0
    2.4906   -9.5154   17.3258 C   0  0  0  0  0  0  0  0  0  0  0  0
    3.0494   -8.1627   17.9136 C   0  0  0  0  0  0  0  0  0  0  0  0
    4.7735   -7.2141   18.3049 C   0  0  0  0  0  0  0  0  0  0  0  0
    4.5600   -5.9561   18.6958 N   0  0  0  0  0  0  0  0  0  0  0  0
    5.1690   -5.4546   17.6888 C   0  0  0  0  0  0  0  0  0  0  0  0
    4.5712   -4.9055   16.6550 C   0  0  0  0  0  0  0  0  0  0  0  0
    4.6021   -6.2838   16.0318 C   0  0  0  0  0  0  0  0  0  0  0  0
    6.0460   -6.6880   15.7610 C   0  0  0  0  0  0  0  0  0  0  0  0
    6.9591   -5.9485   16.2111 C   0  0  0  0  0  0  0  0  0  0  0  0
    6.3583   -6.0380   17.3642 C   0  0  0  0  0  0  0  0  0  0  0  0
    6.3379   -6.9760   18.2413 N   0  0  0  0  0  0  0  0  0  0  0  0
    7.5640   -6.4954   19.1657 C   0  0  0  0  0  0  0  0  0  0  0  0
    9.6858   -5.8621   19.1420 C   0  0  0  0  0  0  0  0  0  0  0  0
   10.6352   -5.7695   20.2584 C   0  0  0  0  0  0  0  0  0  0  0  0
   12.1333   -5.3733   20.4777 C   0  0  0  0  0  0  0  0  0  0  0  0
   12.9567   -4.8357   19.5269 C   0  0  0  0  0  0  0  0  0  0  0  0
   12.4438   -4.6098   18.2704 C   0  0  0  0  0  0  0  0  0  0  0  0
   13.5024   -3.9632   17.5641 C   0  0  0  0  0  0  0  0  0  0  0  0
   13.3700   -3.3981   16.3259 C   0  0  0  0  0  0  0  0  0  0  0  0
   12.1521   -3.5082   15.7547 C   0  0  0  0  0  0  0  0  0  0  0  0
   11.1132   -4.2261   16.4270 C   0  0  0  0  0  0  0  0  0  0  0  0
   10.8805   -4.9835   17.8567 C   0  0  0  0  0  0  0  0  0  0  0  0
   -1.4792   -9.2420   18.1927 H   0  0  0  0  0  0  0  0  0  0  0  0
   -1.5553  -10.2291   19.6683 H   0  0  0  0  0  0  0  0  0  0  0  0
   -1.2110  -11.0130   18.1129 H   0  0  0  0  0  0  0  0  0  0  0  0
    0.3964   -9.8111   16.9272 H   0  0  0  0  0  0  0  0  0  0  0  0
    2.3508   -9.3767   16.2428 H   0  0  0  0  0  0  0  0  0  0  0  0
    3.0598  -10.4315   17.3268 H   0  0  0  0  0  0  0  0  0  0  0  0
    2.2688   -7.7455   18.5717 H   0  0  0  0  0  0  0  0  0  0  0  0
    2.7634   -7.7012   16.9690 H   0  0  0  0  0  0  0  0  0  0  0  0
    3.9299   -4.0784   16.4261 H   0  0  0  0  0  0  0  0  0  0  0  0
    3.7631   -6.5252   15.3263 H   0  0  0  0  0  0  0  0  0  0  0  0
    6.3737   -7.3435   14.9254 H   0  0  0  0  0  0  0  0  0  0  0  0
    7.7807   -6.2790   15.6437 H   0  0  0  0  0  0  0  0  0  0  0  0
    7.0417   -5.5757   19.6222 H   0  0  0  0  0  0  0  0  0  0  0  0
    7.3521   -7.4137   19.7355 H   0  0  0  0  0  0  0  0  0  0  0  0
   10.5490   -6.8102   20.7334 H   0  0  0  0  0  0  0  0  0  0  0  0
   12.6080   -5.6147   21.4314 H   0  0  0  0  0  0  0  0  0  0  0  0
   13.9726   -4.6047   19.8360 H   0  0  0  0  0  0  0  0  0  0  0  0
   14.4901   -3.8327   18.0134 H   0  0  0  0  0  0  0  0  0  0  0  0
   14.1902   -2.8808   15.8431 H   0  0  0  0  0  0  0  0  0  0  0  0
   11.9525   -3.0646   14.7808 H   0  0  0  0  0  0  0  0  0  0  0  0
   10.2704   -4.0716   15.7493 H   0  0  0  0  0  0  0  0  0  0  0  0
  1  2  1  0
  2  3  2  0
  2  4  1  0
  4  5  1  0
  5  6  1  0
  6  7  1  0
  7  8  2  0
  8  9  1  0
  9 10  2  0
 10 11  1  0
 11 12  2  0
 12 13  1  0
 13 14  2  0
 14 15  1  0
 15 16  1  0
 16 17  1  0
 17 18  2  0
 18 19  1  0
 19 20  2  0
 20 21  1  0
 21 22  2  0
 22 23  1  0
 23 24  2  0
 24 25  1  0
 25 26  2  0
 15  7  1  0
 26 17  1  0
 14  9  1  0
 26 21  1  0
  1 27  1  0
  1 28  1  0
  1 29  1  0
  4 30  1  0
  5 31  1  0
  5 32  1  0
  6 33  1  0
  6 34  1  0
 10 35  1  0
 11 36  1  0
 12 37  1  0
 13 38  1  0
 16 39  1  0
 16 40  1  0
 18 41  1  0
 19 42  1  0
 20 43  1  0
 22 44  1  0
 23 45  1  0
 24 46  1  0
 25 47  1  0
M  END
>  <Energy>  (1478) 
932.15111532016499

>  <compound_id>  (1478) 
6830

>  <target_id>  (1478) 
1

>  <reference_id>  (1478) 
94

>  <inspiration_ids>  (1478) 
[94, 97]

>  <energy_score>  (1478) 
853.466228722572

>  <distance_score>  (1478) 
15.709653473663282

>  <path>  (1478) 
/opt/xchem-fragalysis-2/maxwin/BulkDock/SCRATCH/511018/C6830-P94/C6830-P94.minimised.mol

>  <scratch_subdir>  (1478) 
/opt/xchem-fragalysis-2/maxwin/BulkDock/SCRATCH/511018/C6830-P94

>  <fragmenstein_runtime>  (1478) 
25.217571020126343

>  <fragmenstein_outcome>  (1478) 
too moved

>  <fragmenstein_mode>  (1478) 
expansion

>  <fragmenstein_error>  (1478) 


$$$$
C6830-P97
     RDKit          3D

 47 50  0  0  0  0  0  0  0  0999 V2000
   -1.8667   -9.6208   16.8629 C   0  0  0  0  0  0  0  0  0  0  0  0
   -1.1829   -8.8446   15.7558 C   0  0  0  0  0  0  0  0  0  0  0  0
   -1.6817   -7.8459   15.3280 O   0  0  0  0  0  0  0  0  0  0  0  0
    0.0439   -9.4992   15.4120 N   0  0  0  0  0  0  0  0  0  0  0  0
    1.0149   -9.2129   14.3785 C   0  0  0  0  0  0  0  0  0  0  0  0
    1.5502   -7.7850   14.4583 C   0  0  0  0  0  0  0  0  0  0  0  0
    2.6145   -7.5418   13.3827 C   0  0  0  0  0  0  0  0  0  0  0  0
    3.6251   -8.3740   13.1668 N   0  0  0  0  0  0  0  0  0  0  0  0
    4.1307   -8.0650   11.9341 C   0  0  0  0  0  0  0  0  0  0  0  0
    5.0969   -8.7440   11.1715 C   0  0  0  0  0  0  0  0  0  0  0  0
    5.3021   -8.3459    9.8463 C   0  0  0  0  0  0  0  0  0  0  0  0
    4.5786   -7.2813    9.3062 C   0  0  0  0  0  0  0  0  0  0  0  0
    3.6592   -6.5564   10.0786 C   0  0  0  0  0  0  0  0  0  0  0  0
    3.4782   -6.9518   11.4115 C   0  0  0  0  0  0  0  0  0  0  0  0
    2.7051   -6.4808   12.4710 N   0  0  0  0  0  0  0  0  0  0  0  0
    1.9540   -5.2199   12.4722 C   0  0  0  0  0  0  0  0  0  0  0  0
    2.7446   -3.9313   12.6484 C   0  0  0  0  0  0  0  0  0  0  0  0
    3.3171   -3.3449   11.4999 C   0  0  0  0  0  0  0  0  0  0  0  0
    4.0735   -2.1887   11.5784 C   0  0  0  0  0  0  0  0  0  0  0  0
    4.2615   -1.5821   12.8102 C   0  0  0  0  0  0  0  0  0  0  0  0
    3.6811   -2.0930   13.9792 C   0  0  0  0  0  0  0  0  0  0  0  0
    3.8783   -1.4494   15.2110 C   0  0  0  0  0  0  0  0  0  0  0  0
    3.3709   -1.9741   16.3952 C   0  0  0  0  0  0  0  0  0  0  0  0
    2.6848   -3.1737   16.3679 C   0  0  0  0  0  0  0  0  0  0  0  0
    2.4496   -3.8109   15.1476 C   0  0  0  0  0  0  0  0  0  0  0  0
    2.9173   -3.2875   13.9184 C   0  0  0  0  0  0  0  0  0  0  0  0
   -1.2070   -9.6947   17.7323 H   0  0  0  0  0  0  0  0  0  0  0  0
   -2.1334  -10.6201   16.5074 H   0  0  0  0  0  0  0  0  0  0  0  0
   -2.7814   -9.1017   17.1643 H   0  0  0  0  0  0  0  0  0  0  0  0
    0.1069  -10.3727   15.9229 H   0  0  0  0  0  0  0  0  0  0  0  0
    0.5220   -9.3799   13.4142 H   0  0  0  0  0  0  0  0  0  0  0  0
    1.8187   -9.9493   14.4804 H   0  0  0  0  0  0  0  0  0  0  0  0
    0.7272   -7.0751   14.3375 H   0  0  0  0  0  0  0  0  0  0  0  0
    1.9972   -7.5950   15.4406 H   0  0  0  0  0  0  0  0  0  0  0  0
    5.6161   -9.5974   11.5935 H   0  0  0  0  0  0  0  0  0  0  0  0
    6.0209   -8.8807    9.2308 H   0  0  0  0  0  0  0  0  0  0  0  0
    4.7414   -6.9982    8.2681 H   0  0  0  0  0  0  0  0  0  0  0  0
    3.1022   -5.7417    9.6349 H   0  0  0  0  0  0  0  0  0  0  0  0
    1.1608   -5.2916   13.2196 H   0  0  0  0  0  0  0  0  0  0  0  0
    1.4198   -5.1862   11.5129 H   0  0  0  0  0  0  0  0  0  0  0  0
    3.1736   -3.7843   10.5192 H   0  0  0  0  0  0  0  0  0  0  0  0
    4.5280   -1.7572   10.6895 H   0  0  0  0  0  0  0  0  0  0  0  0
    4.8855   -0.7019   12.8290 H   0  0  0  0  0  0  0  0  0  0  0  0
    4.4468   -0.5318   15.2715 H   0  0  0  0  0  0  0  0  0  0  0  0
    3.5380   -1.4626   17.3388 H   0  0  0  0  0  0  0  0  0  0  0  0
    2.3125   -3.6118   17.2905 H   0  0  0  0  0  0  0  0  0  0  0  0
    1.9009   -4.7477   15.1818 H   0  0  0  0  0  0  0  0  0  0  0  0
  1  2  1  0
  2  3  2  0
  2  4  1  0
  4  5  1  0
  5  6  1  0
  6  7  1  0
  7  8  2  0
  8  9  1  0
  9 10  2  0
 10 11  1  0
 11 12  2  0
 12 13  1  0
 13 14  2  0
 14 15  1  0
 15 16  1  0
 16 17  1  0
 17 18  2  0
 18 19  1  0
 19 20  2  0
 20 21  1  0
 21 22  2  0
 22 23  1  0
 23 24  2  0
 24 25  1  0
 25 26  2  0
 15  7  1  0
 26 17  1  0
 14  9  1  0
 26 21  1  0
  1 27  1  0
  1 28  1  0
  1 29  1  0
  4 30  1  0
  5 31  1  0
  5 32  1  0
  6 33  1  0
  6 34  1  0
 10 35  1  0
 11 36  1  0
 12 37  1  0
 13 38  1  0
 16 39  1  0
 16 40  1  0
 18 41  1  0
 19 42  1  0
 20 43  1  0
 22 44  1  0
 23 45  1  0
 24 46  1  0
 25 47  1  0
M  END
>  <Energy>  (1479) 
58.822691837703182

>  <compound_id>  (1479) 
6830

>  <target_id>  (1479) 
1

>  <reference_id>  (1479) 
97

>  <inspiration_ids>  (1479) 
[94, 97]

>  <energy_score>  (1479) 
-19.862194759889462

>  <distance_score>  (1479) 
17.679054320493147

>  <path>  (1479) 
/opt/xchem-fragalysis-2/maxwin/BulkDock/SCRATCH/511018/C6830-P97/C6830-P97.minimised.mol

>  <scratch_subdir>  (1479) 
/opt/xchem-fragalysis-2/maxwin/BulkDock/SCRATCH/511018/C6830-P97

>  <fragmenstein_runtime>  (1479) 
21.134802103042603

>  <fragmenstein_outcome>  (1479) 
too moved

>  <fragmenstein_mode>  (1479) 
expansion

>  <fragmenstein_error>  (1479) 


$$$$
C6832-P94
     RDKit          3D

 53 55  0  0  0  0  0  0  0  0999 V2000
   13.3085   -1.0148   15.5447 C   0  0  0  0  0  0  0  0  0  0  0  0
   12.4384   -2.1739   15.9834 C   0  0  0  0  0  0  0  0  0  0  0  0
   11.2674   -2.0094   16.1666 O   0  0  0  0  0  0  0  0  0  0  0  0
   13.2476   -3.3569   16.0854 N   0  0  0  0  0  0  0  0  0  0  0  0
   12.9206   -4.7014   16.5337 C   0  0  0  0  0  0  0  0  0  0  0  0
   11.4674   -5.1422   16.2564 C   0  0  0  0  0  0  0  0  0  0  0  0
   10.9438   -6.8841   15.7639 C   0  0  0  0  0  0  0  0  0  0  0  0
   12.2322   -7.7399   16.0031 C   0  0  0  0  0  0  0  0  0  0  0  0
   11.5295   -9.5907   15.9821 C   0  0  0  0  0  0  0  0  0  0  0  0
    9.6131   -9.4919   15.6951 C   0  0  0  0  0  0  0  0  0  0  0  0
    8.9426  -10.0810   16.6290 N   0  0  0  0  0  0  0  0  0  0  0  0
    8.1237  -11.6036   16.3882 C   0  0  0  0  0  0  0  0  0  0  0  0
    7.9437  -12.2293   15.4460 O   0  0  0  0  0  0  0  0  0  0  0  0
    7.6115  -11.8201   17.8138 N   0  0  0  0  0  0  0  0  0  0  0  0
    6.6746  -12.9560   18.4157 C   0  0  0  0  0  0  0  0  0  0  0  0
    5.0902  -13.0256   18.0793 C   0  0  0  0  0  0  0  0  0  0  0  0
    3.9956  -14.0699   18.7804 C   0  0  0  0  0  0  0  0  0  0  0  0
    2.7561  -13.7326   19.1697 N   0  0  0  0  0  0  0  0  0  0  0  0
    1.9906  -14.9027   19.2983 C   0  0  0  0  0  0  0  0  0  0  0  0
    0.6137  -15.1066   19.5885 C   0  0  0  0  0  0  0  0  0  0  0  0
    0.0827  -16.4093   19.6384 C   0  0  0  0  0  0  0  0  0  0  0  0
    0.9062  -17.5075   19.3995 C   0  0  0  0  0  0  0  0  0  0  0  0
    2.2722  -17.3302   19.0947 C   0  0  0  0  0  0  0  0  0  0  0  0
    2.7881  -16.0112   19.0559 C   0  0  0  0  0  0  0  0  0  0  0  0
    4.0481  -15.4708   18.7757 N   0  0  0  0  0  0  0  0  0  0  0  0
    9.7508   -8.6755   15.3766 C   0  0  0  0  0  0  0  0  0  0  0  0
   12.6929   -0.1178   15.4286 H   0  0  0  0  0  0  0  0  0  0  0  0
   14.0739   -0.8167   16.3003 H   0  0  0  0  0  0  0  0  0  0  0  0
   13.7780   -1.2417   14.5833 H   0  0  0  0  0  0  0  0  0  0  0  0
   14.2190   -3.1066   15.9386 H   0  0  0  0  0  0  0  0  0  0  0  0
   13.6584   -5.3278   16.0539 H   0  0  0  0  0  0  0  0  0  0  0  0
   13.1265   -4.7205   17.6094 H   0  0  0  0  0  0  0  0  0  0  0  0
   10.9809   -4.8264   17.1668 H   0  0  0  0  0  0  0  0  0  0  0  0
   11.0766   -4.4697   15.4707 H   0  0  0  0  0  0  0  0  0  0  0  0
   10.8675   -6.4984   14.8159 H   0  0  0  0  0  0  0  0  0  0  0  0
   12.5584   -7.1578   16.8164 H   0  0  0  0  0  0  0  0  0  0  0  0
   13.0402   -7.6605   15.3311 H   0  0  0  0  0  0  0  0  0  0  0  0
   11.4278  -10.2175   16.8710 H   0  0  0  0  0  0  0  0  0  0  0  0
   12.0414  -10.2451   15.2665 H   0  0  0  0  0  0  0  0  0  0  0  0
    8.8037  -10.0123   14.7769 H   0  0  0  0  0  0  0  0  0  0  0  0
    9.9870  -10.6201   15.4402 H   0  0  0  0  0  0  0  0  0  0  0  0
    8.0232  -11.1285   18.4276 H   0  0  0  0  0  0  0  0  0  0  0  0
    7.1273  -13.8969   18.0853 H   0  0  0  0  0  0  0  0  0  0  0  0
    6.7963  -12.8746   19.5006 H   0  0  0  0  0  0  0  0  0  0  0  0
    4.6795  -12.0273   18.2804 H   0  0  0  0  0  0  0  0  0  0  0  0
    4.9885  -13.1953   16.9995 H   0  0  0  0  0  0  0  0  0  0  0  0
   -0.0183  -14.2462   19.7774 H   0  0  0  0  0  0  0  0  0  0  0  0
   -0.9682  -16.5539   19.8671 H   0  0  0  0  0  0  0  0  0  0  0  0
    0.4954  -18.5129   19.4546 H   0  0  0  0  0  0  0  0  0  0  0  0
    2.9088  -18.1880   18.9016 H   0  0  0  0  0  0  0  0  0  0  0  0
    4.8393  -16.0095   18.4591 H   0  0  0  0  0  0  0  0  0  0  0  0
   10.1666   -9.4426   14.2345 H   0  0  0  0  0  0  0  0  0  0  0  0
    8.8657   -8.0686   14.8112 H   0  0  0  0  0  0  0  0  0  0  0  0
  1  2  1  0
  2  3  2  0
  2  4  1  0
  4  5  1  0
  5  6  1  0
  6  7  1  0
  7  8  1  0
  8  9  1  0
  9 10  1  0
 10 11  1  0
 11 12  1  0
 12 13  2  0
 12 14  1  0
 14 15  1  0
 15 16  1  0
 16 17  1  0
 17 18  2  0
 18 19  1  0
 19 20  2  0
 20 21  1  0
 21 22  2  0
 22 23  1  0
 23 24  2  0
 24 25  1  0
 11 26  1  0
 26  7  1  0
 25 17  1  0
 24 19  1  0
  1 27  1  0
  1 28  1  0
  1 29  1  0
  4 30  1  0
  5 31  1  0
  5 32  1  0
  6 33  1  0
  6 34  1  0
  7 35  1  0
  8 36  1  0
  8 37  1  0
  9 38  1  0
  9 39  1  0
 10 40  1  0
 10 41  1  0
 14 42  1  0
 15 43  1  0
 15 44  1  0
 16 45  1  0
 16 46  1  0
 20 47  1  0
 21 48  1  0
 22 49  1  0
 23 50  1  0
 25 51  1  0
 26 52  1  0
 26 53  1  0
M  END
>  <Energy>  (1480) 
1081.8891325408722

>  <compound_id>  (1480) 
6832

>  <target_id>  (1480) 
1

>  <reference_id>  (1480) 
94

>  <inspiration_ids>  (1480) 
[94, 97]

>  <energy_score>  (1480) 
1118.9253930940504

>  <distance_score>  (1480) 
13.797106327643101

>  <path>  (1480) 
/opt/xchem-fragalysis-2/maxwin/BulkDock/SCRATCH/511018/C6832-P94/C6832-P94.minimised.mol

>  <scratch_subdir>  (1480) 
/opt/xchem-fragalysis-2/maxwin/BulkDock/SCRATCH/511018/C6832-P94

>  <fragmenstein_runtime>  (1480) 
39.26928186416626

>  <fragmenstein_outcome>  (1480) 
too moved

>  <fragmenstein_mode>  (1480) 
expansion

>  <fragmenstein_error>  (1480) 


$$$$
C6832-P97
     RDKit          3D

 53 55  0  0  0  0  0  0  0  0999 V2000
    2.6864   -7.9123   13.5485 C   0  0  0  0  0  0  0  0  0  0  0  0
    2.5904   -8.0134   15.0575 C   0  0  0  0  0  0  0  0  0  0  0  0
    1.7821   -7.3640   15.6516 O   0  0  0  0  0  0  0  0  0  0  0  0
    3.5624   -8.9560   15.5273 N   0  0  0  0  0  0  0  0  0  0  0  0
    3.9319   -9.3438   16.8631 C   0  0  0  0  0  0  0  0  0  0  0  0
    3.3811  -10.7146   17.2411 C   0  0  0  0  0  0  0  0  0  0  0  0
    1.8315  -10.7836   17.3232 C   0  0  0  0  0  0  0  0  0  0  0  0
    1.2480   -9.8935   18.3825 C   0  0  0  0  0  0  0  0  0  0  0  0
    0.2247  -10.8580   18.9216 C   0  0  0  0  0  0  0  0  0  0  0  0
    0.3952  -12.3750   17.8316 C   0  0  0  0  0  0  0  0  0  0  0  0
   -0.5426  -13.1467   18.3674 N   0  0  0  0  0  0  0  0  0  0  0  0
   -2.0503  -13.3877   17.6064 C   0  0  0  0  0  0  0  0  0  0  0  0
   -2.4486  -13.0801   16.5865 O   0  0  0  0  0  0  0  0  0  0  0  0
   -2.6799  -14.2183   18.6773 N   0  0  0  0  0  0  0  0  0  0  0  0
   -4.0581  -14.8092   18.7698 C   0  0  0  0  0  0  0  0  0  0  0  0
   -4.2031  -16.2213   19.4320 C   0  0  0  0  0  0  0  0  0  0  0  0
   -5.5187  -16.5907   20.1955 C   0  0  0  0  0  0  0  0  0  0  0  0
   -6.1017  -15.9572   21.2070 N   0  0  0  0  0  0  0  0  0  0  0  0
   -7.1512  -16.7569   21.6389 C   0  0  0  0  0  0  0  0  0  0  0  0
   -8.1423  -16.5161   22.6052 C   0  0  0  0  0  0  0  0  0  0  0  0
   -9.1338  -17.4820   22.8192 C   0  0  0  0  0  0  0  0  0  0  0  0
   -9.1111  -18.6936   22.1262 C   0  0  0  0  0  0  0  0  0  0  0  0
   -8.1049  -18.9731   21.1920 C   0  0  0  0  0  0  0  0  0  0  0  0
   -7.1693  -17.9579   20.9470 C   0  0  0  0  0  0  0  0  0  0  0  0
   -6.1503  -17.8227   20.0269 N   0  0  0  0  0  0  0  0  0  0  0  0
    1.2028  -12.4225   17.8313 C   0  0  0  0  0  0  0  0  0  0  0  0
    3.6622   -7.5077   13.2645 H   0  0  0  0  0  0  0  0  0  0  0  0
    2.5413   -8.8972   13.0956 H   0  0  0  0  0  0  0  0  0  0  0  0
    1.9073   -7.2409   13.1755 H   0  0  0  0  0  0  0  0  0  0  0  0
    4.1375   -9.2549   14.7467 H   0  0  0  0  0  0  0  0  0  0  0  0
    5.0255   -9.3632   16.8986 H   0  0  0  0  0  0  0  0  0  0  0  0
    3.5830   -8.5730   17.5572 H   0  0  0  0  0  0  0  0  0  0  0  0
    3.7185  -11.4618   16.5124 H   0  0  0  0  0  0  0  0  0  0  0  0
    3.7997  -11.0104   18.2106 H   0  0  0  0  0  0  0  0  0  0  0  0
    1.3926  -10.5777   16.3362 H   0  0  0  0  0  0  0  0  0  0  0  0
    0.7921   -8.9929   17.9625 H   0  0  0  0  0  0  0  0  0  0  0  0
    1.9578   -9.6033   19.1625 H   0  0  0  0  0  0  0  0  0  0  0  0
    0.4490  -11.1751   19.9497 H   0  0  0  0  0  0  0  0  0  0  0  0
   -0.8102  -10.4905   18.8984 H   0  0  0  0  0  0  0  0  0  0  0  0
   -0.4426  -11.6350   17.3271 H   0  0  0  0  0  0  0  0  0  0  0  0
    0.1032  -12.5793   16.5407 H   0  0  0  0  0  0  0  0  0  0  0  0
   -2.0797  -14.2265   19.4944 H   0  0  0  0  0  0  0  0  0  0  0  0
   -4.4389  -14.8623   17.7428 H   0  0  0  0  0  0  0  0  0  0  0  0
   -4.6770  -14.0607   19.2688 H   0  0  0  0  0  0  0  0  0  0  0  0
   -3.3790  -16.3703   20.1331 H   0  0  0  0  0  0  0  0  0  0  0  0
   -4.0500  -16.9725   18.6457 H   0  0  0  0  0  0  0  0  0  0  0  0
   -8.1620  -15.5671   23.1313 H   0  0  0  0  0  0  0  0  0  0  0  0
   -9.9360  -17.2508   23.5121 H   0  0  0  0  0  0  0  0  0  0  0  0
   -9.9006  -19.4251   22.2851 H   0  0  0  0  0  0  0  0  0  0  0  0
   -8.1007  -19.9018   20.6310 H   0  0  0  0  0  0  0  0  0  0  0  0
   -5.8775  -18.5214   19.3512 H   0  0  0  0  0  0  0  0  0  0  0  0
    1.7952  -13.2317   17.1120 H   0  0  0  0  0  0  0  0  0  0  0  0
    1.9103  -12.6711   18.7924 H   0  0  0  0  0  0  0  0  0  0  0  0
  1  2  1  0
  2  3  2  0
  2  4  1  0
  4  5  1  0
  5  6  1  0
  6  7  1  0
  7  8  1  0
  8  9  1  0
  9 10  1  0
 10 11  1  0
 11 12  1  0
 12 13  2  0
 12 14  1  0
 14 15  1  0
 15 16  1  0
 16 17  1  0
 17 18  2  0
 18 19  1  0
 19 20  2  0
 20 21  1  0
 21 22  2  0
 22 23  1  0
 23 24  2  0
 24 25  1  0
 11 26  1  0
 26  7  1  0
 25 17  1  0
 24 19  1  0
  1 27  1  0
  1 28  1  0
  1 29  1  0
  4 30  1  0
  5 31  1  0
  5 32  1  0
  6 33  1  0
  6 34  1  0
  7 35  1  0
  8 36  1  0
  8 37  1  0
  9 38  1  0
  9 39  1  0
 10 40  1  0
 10 41  1  0
 14 42  1  0
 15 43  1  0
 15 44  1  0
 16 45  1  0
 16 46  1  0
 20 47  1  0
 21 48  1  0
 22 49  1  0
 23 50  1  0
 25 51  1  0
 26 52  1  0
 26 53  1  0
M  END
>  <Energy>  (1481) 
717.9454024010829

>  <compound_id>  (1481) 
6832

>  <target_id>  (1481) 
1

>  <reference_id>  (1481) 
97

>  <inspiration_ids>  (1481) 
[94, 97]

>  <energy_score>  (1481) 
754.9816629542688

>  <distance_score>  (1481) 
15.382963934377605

>  <path>  (1481) 
/opt/xchem-fragalysis-2/maxwin/BulkDock/SCRATCH/511018/C6832-P97/C6832-P97.minimised.mol

>  <scratch_subdir>  (1481) 
/opt/xchem-fragalysis-2/maxwin/BulkDock/SCRATCH/511018/C6832-P97

>  <fragmenstein_runtime>  (1481) 
34.6393518447876

>  <fragmenstein_outcome>  (1481) 
too moved

>  <fragmenstein_mode>  (1481) 
expansion

>  <fragmenstein_error>  (1481) 


$$$$
C6830-P94
     RDKit          3D

 47 50  0  0  0  0  0  0  0  0999 V2000
   -1.0505  -10.1077   18.7052 C   0  0  0  0  0  0  0  0  0  0  0  0
    0.4316   -9.8901   18.9324 C   0  0  0  0  0  0  0  0  0  0  0  0
    0.8645   -9.8309   20.0453 O   0  0  0  0  0  0  0  0  0  0  0  0
    1.0929   -9.8016   17.6649 N   0  0  0  0  0  0  0  0  0  0  0  0
    2.4906   -9.5154   17.3258 C   0  0  0  0  0  0  0  0  0  0  0  0
    3.0494   -8.1627   17.9136 C   0  0  0  0  0  0  0  0  0  0  0  0
    4.7735   -7.2141   18.3049 C   0  0  0  0  0  0  0  0  0  0  0  0
    4.5600   -5.9561   18.6958 N   0  0  0  0  0  0  0  0  0  0  0  0
    5.1690   -5.4546   17.6888 C   0  0  0  0  0  0  0  0  0  0  0  0
    4.5712   -4.9055   16.6550 C   0  0  0  0  0  0  0  0  0  0  0  0
    4.6021   -6.2838   16.0318 C   0  0  0  0  0  0  0  0  0  0  0  0
    6.0460   -6.6880   15.7610 C   0  0  0  0  0  0  0  0  0  0  0  0
    6.9591   -5.9485   16.2111 C   0  0  0  0  0  0  0  0  0  0  0  0
    6.3583   -6.0380   17.3642 C   0  0  0  0  0  0  0  0  0  0  0  0
    6.3379   -6.9760   18.2413 N   0  0  0  0  0  0  0  0  0  0  0  0
    7.5640   -6.4954   19.1657 C   0  0  0  0  0  0  0  0  0  0  0  0
    9.6858   -5.8621   19.1420 C   0  0  0  0  0  0  0  0  0  0  0  0
   10.6352   -5.7695   20.2584 C   0  0  0  0  0  0  0  0  0  0  0  0
   12.1333   -5.3733   20.4777 C   0  0  0  0  0  0  0  0  0  0  0  0
   12.9567   -4.8357   19.5269 C   0  0  0  0  0  0  0  0  0  0  0  0
   12.4438   -4.6098   18.2704 C   0  0  0  0  0  0  0  0  0  0  0  0
   13.5024   -3.9632   17.5641 C   0  0  0  0  0  0  0  0  0  0  0  0
   13.3700   -3.3981   16.3259 C   0  0  0  0  0  0  0  0  0  0  0  0
   12.1521   -3.5082   15.7547 C   0  0  0  0  0  0  0  0  0  0  0  0
   11.1132   -4.2261   16.4270 C   0  0  0  0  0  0  0  0  0  0  0  0
   10.8805   -4.9835   17.8567 C   0  0  0  0  0  0  0  0  0  0  0  0
   -1.4792   -9.2420   18.1927 H   0  0  0  0  0  0  0  0  0  0  0  0
   -1.5553  -10.2291   19.6683 H   0  0  0  0  0  0  0  0  0  0  0  0
   -1.2110  -11.0130   18.1129 H   0  0  0  0  0  0  0  0  0  0  0  0
    0.3964   -9.8111   16.9272 H   0  0  0  0  0  0  0  0  0  0  0  0
    2.3508   -9.3767   16.2428 H   0  0  0  0  0  0  0  0  0  0  0  0
    3.0598  -10.4315   17.3268 H   0  0  0  0  0  0  0  0  0  0  0  0
    2.2688   -7.7455   18.5717 H   0  0  0  0  0  0  0  0  0  0  0  0
    2.7634   -7.7012   16.9690 H   0  0  0  0  0  0  0  0  0  0  0  0
    3.9299   -4.0784   16.4261 H   0  0  0  0  0  0  0  0  0  0  0  0
    3.7631   -6.5252   15.3263 H   0  0  0  0  0  0  0  0  0  0  0  0
    6.3737   -7.3435   14.9254 H   0  0  0  0  0  0  0  0  0  0  0  0
    7.7807   -6.2790   15.6437 H   0  0  0  0  0  0  0  0  0  0  0  0
    7.0417   -5.5757   19.6222 H   0  0  0  0  0  0  0  0  0  0  0  0
    7.3521   -7.4137   19.7355 H   0  0  0  0  0  0  0  0  0  0  0  0
   10.5490   -6.8102   20.7334 H   0  0  0  0  0  0  0  0  0  0  0  0
   12.6080   -5.6147   21.4314 H   0  0  0  0  0  0  0  0  0  0  0  0
   13.9726   -4.6047   19.8360 H   0  0  0  0  0  0  0  0  0  0  0  0
   14.4901   -3.8327   18.0134 H   0  0  0  0  0  0  0  0  0  0  0  0
   14.1902   -2.8808   15.8431 H   0  0  0  0  0  0  0  0  0  0  0  0
   11.9525   -3.0646   14.7808 H   0  0  0  0  0  0  0  0  0  0  0  0
   10.2704   -4.0716   15.7493 H   0  0  0  0  0  0  0  0  0  0  0  0
  1  2  1  0
  2  3  2  0
  2  4  1  0
  4  5  1  0
  5  6  1  0
  6  7  1  0
  7  8  2  0
  8  9  1  0
  9 10  2  0
 10 11  1  0
 11 12  2  0
 12 13  1  0
 13 14  2  0
 14 15  1  0
 15 16  1  0
 16 17  1  0
 17 18  2  0
 18 19  1  0
 19 20  2  0
 20 21  1  0
 21 22  2  0
 22 23  1  0
 23 24  2  0
 24 25  1  0
 25 26  2  0
 15  7  1  0
 26 17  1  0
 14  9  1  0
 26 21  1  0
  1 27  1  0
  1 28  1  0
  1 29  1  0
  4 30  1  0
  5 31  1  0
  5 32  1  0
  6 33  1  0
  6 34  1  0
 10 35  1  0
 11 36  1  0
 12 37  1  0
 13 38  1  0
 16 39  1  0
 16 40  1  0
 18 41  1  0
 19 42  1  0
 20 43  1  0
 22 44  1  0
 23 45  1  0
 24 46  1  0
 25 47  1  0
M  END
>  <Energy>  (1482) 
932.15111532016499

>  <compound_id>  (1482) 
6830

>  <target_id>  (1482) 
1

>  <reference_id>  (1482) 
94

>  <inspiration_ids>  (1482) 
[94, 97]

>  <energy_score>  (1482) 
853.466228722572

>  <distance_score>  (1482) 
15.709653473663282

>  <path>  (1482) 
/opt/xchem-fragalysis-2/maxwin/BulkDock/SCRATCH/511018/C6830-P94/C6830-P94.minimised.mol

>  <scratch_subdir>  (1482) 
/opt/xchem-fragalysis-2/maxwin/BulkDock/SCRATCH/511018/C6830-P94

>  <fragmenstein_runtime>  (1482) 
23.110690355300903

>  <fragmenstein_outcome>  (1482) 
too moved

>  <fragmenstein_mode>  (1482) 
expansion

>  <fragmenstein_error>  (1482) 


$$$$
C6830-P97
     RDKit          3D

 47 50  0  0  0  0  0  0  0  0999 V2000
   -1.8667   -9.6208   16.8629 C   0  0  0  0  0  0  0  0  0  0  0  0
   -1.1829   -8.8446   15.7558 C   0  0  0  0  0  0  0  0  0  0  0  0
   -1.6817   -7.8459   15.3280 O   0  0  0  0  0  0  0  0  0  0  0  0
    0.0439   -9.4992   15.4120 N   0  0  0  0  0  0  0  0  0  0  0  0
    1.0149   -9.2129   14.3785 C   0  0  0  0  0  0  0  0  0  0  0  0
    1.5502   -7.7850   14.4583 C   0  0  0  0  0  0  0  0  0  0  0  0
    2.6145   -7.5418   13.3827 C   0  0  0  0  0  0  0  0  0  0  0  0
    3.6251   -8.3740   13.1668 N   0  0  0  0  0  0  0  0  0  0  0  0
    4.1307   -8.0650   11.9341 C   0  0  0  0  0  0  0  0  0  0  0  0
    5.0969   -8.7440   11.1715 C   0  0  0  0  0  0  0  0  0  0  0  0
    5.3021   -8.3459    9.8463 C   0  0  0  0  0  0  0  0  0  0  0  0
    4.5786   -7.2813    9.3062 C   0  0  0  0  0  0  0  0  0  0  0  0
    3.6592   -6.5564   10.0786 C   0  0  0  0  0  0  0  0  0  0  0  0
    3.4782   -6.9518   11.4115 C   0  0  0  0  0  0  0  0  0  0  0  0
    2.7051   -6.4808   12.4710 N   0  0  0  0  0  0  0  0  0  0  0  0
    1.9540   -5.2199   12.4722 C   0  0  0  0  0  0  0  0  0  0  0  0
    2.7446   -3.9313   12.6484 C   0  0  0  0  0  0  0  0  0  0  0  0
    3.3171   -3.3449   11.4999 C   0  0  0  0  0  0  0  0  0  0  0  0
    4.0735   -2.1887   11.5784 C   0  0  0  0  0  0  0  0  0  0  0  0
    4.2615   -1.5821   12.8102 C   0  0  0  0  0  0  0  0  0  0  0  0
    3.6811   -2.0930   13.9792 C   0  0  0  0  0  0  0  0  0  0  0  0
    3.8783   -1.4494   15.2110 C   0  0  0  0  0  0  0  0  0  0  0  0
    3.3709   -1.9741   16.3952 C   0  0  0  0  0  0  0  0  0  0  0  0
    2.6848   -3.1737   16.3679 C   0  0  0  0  0  0  0  0  0  0  0  0
    2.4496   -3.8109   15.1476 C   0  0  0  0  0  0  0  0  0  0  0  0
    2.9173   -3.2875   13.9184 C   0  0  0  0  0  0  0  0  0  0  0  0
   -1.2070   -9.6947   17.7323 H   0  0  0  0  0  0  0  0  0  0  0  0
   -2.1334  -10.6201   16.5074 H   0  0  0  0  0  0  0  0  0  0  0  0
   -2.7814   -9.1017   17.1643 H   0  0  0  0  0  0  0  0  0  0  0  0
    0.1069  -10.3727   15.9229 H   0  0  0  0  0  0  0  0  0  0  0  0
    0.5220   -9.3799   13.4142 H   0  0  0  0  0  0  0  0  0  0  0  0
    1.8187   -9.9493   14.4804 H   0  0  0  0  0  0  0  0  0  0  0  0
    0.7272   -7.0751   14.3375 H   0  0  0  0  0  0  0  0  0  0  0  0
    1.9972   -7.5950   15.4406 H   0  0  0  0  0  0  0  0  0  0  0  0
    5.6161   -9.5974   11.5935 H   0  0  0  0  0  0  0  0  0  0  0  0
    6.0209   -8.8807    9.2308 H   0  0  0  0  0  0  0  0  0  0  0  0
    4.7414   -6.9982    8.2681 H   0  0  0  0  0  0  0  0  0  0  0  0
    3.1022   -5.7417    9.6349 H   0  0  0  0  0  0  0  0  0  0  0  0
    1.1608   -5.2916   13.2196 H   0  0  0  0  0  0  0  0  0  0  0  0
    1.4198   -5.1862   11.5129 H   0  0  0  0  0  0  0  0  0  0  0  0
    3.1736   -3.7843   10.5192 H   0  0  0  0  0  0  0  0  0  0  0  0
    4.5280   -1.7572   10.6895 H   0  0  0  0  0  0  0  0  0  0  0  0
    4.8855   -0.7019   12.8290 H   0  0  0  0  0  0  0  0  0  0  0  0
    4.4468   -0.5318   15.2715 H   0  0  0  0  0  0  0  0  0  0  0  0
    3.5380   -1.4626   17.3388 H   0  0  0  0  0  0  0  0  0  0  0  0
    2.3125   -3.6118   17.2905 H   0  0  0  0  0  0  0  0  0  0  0  0
    1.9009   -4.7477   15.1818 H   0  0  0  0  0  0  0  0  0  0  0  0
  1  2  1  0
  2  3  2  0
  2  4  1  0
  4  5  1  0
  5  6  1  0
  6  7  1  0
  7  8  2  0
  8  9  1  0
  9 10  2  0
 10 11  1  0
 11 12  2  0
 12 13  1  0
 13 14  2  0
 14 15  1  0
 15 16  1  0
 16 17  1  0
 17 18  2  0
 18 19  1  0
 19 20  2  0
 20 21  1  0
 21 22  2  0
 22 23  1  0
 23 24  2  0
 24 25  1  0
 25 26  2  0
 15  7  1  0
 26 17  1  0
 14  9  1  0
 26 21  1  0
  1 27  1  0
  1 28  1  0
  1 29  1  0
  4 30  1  0
  5 31  1  0
  5 32  1  0
  6 33  1  0
  6 34  1  0
 10 35  1  0
 11 36  1  0
 12 37  1  0
 13 38  1  0
 16 39  1  0
 16 40  1  0
 18 41  1  0
 19 42  1  0
 20 43  1  0
 22 44  1  0
 23 45  1  0
 24 46  1  0
 25 47  1  0
M  END
>  <Energy>  (1483) 
58.822691837703182

>  <compound_id>  (1483) 
6830

>  <target_id>  (1483) 
1

>  <reference_id>  (1483) 
97

>  <inspiration_ids>  (1483) 
[94, 97]

>  <energy_score>  (1483) 
-19.862194759889462

>  <distance_score>  (1483) 
17.679054320493147

>  <path>  (1483) 
/opt/xchem-fragalysis-2/maxwin/BulkDock/SCRATCH/511018/C6830-P97/C6830-P97.minimised.mol

>  <scratch_subdir>  (1483) 
/opt/xchem-fragalysis-2/maxwin/BulkDock/SCRATCH/511018/C6830-P97

>  <fragmenstein_runtime>  (1483) 
18.592333793640137

>  <fragmenstein_outcome>  (1483) 
too moved

>  <fragmenstein_mode>  (1483) 
expansion

>  <fragmenstein_error>  (1483) 


$$$$
C6834-P94
     RDKit          3D

 57 60  0  0  0  0  0  0  0  0999 V2000
  -11.5062  -23.8950   29.2248 C   0  0  0  0  0  0  0  0  0  0  0  0
  -10.5887  -23.3444   28.1506 C   0  0  0  0  0  0  0  0  0  0  0  0
  -10.2266  -24.0657   27.2639 O   0  0  0  0  0  0  0  0  0  0  0  0
  -10.2467  -21.9649   28.4498 N   0  0  0  0  0  0  0  0  0  0  0  0
   -9.3888  -20.9426   27.6727 C   0  0  0  0  0  0  0  0  0  0  0  0
   -7.4551  -21.3242   27.1492 C   0  0  0  0  0  0  0  0  0  0  0  0
   -5.5665  -21.0490   26.8642 C   0  0  0  0  0  0  0  0  0  0  0  0
   -5.2042  -22.3359   26.7497 N   0  0  0  0  0  0  0  0  0  0  0  0
   -5.1696  -22.4698   25.3929 C   0  0  0  0  0  0  0  0  0  0  0  0
   -5.7404  -23.3700   24.4893 C   0  0  0  0  0  0  0  0  0  0  0  0
   -5.2474  -23.5077   23.2000 C   0  0  0  0  0  0  0  0  0  0  0  0
   -4.1659  -22.7423   22.8245 C   0  0  0  0  0  0  0  0  0  0  0  0
   -3.6918  -21.7288   23.6624 C   0  0  0  0  0  0  0  0  0  0  0  0
   -4.3598  -21.4913   24.8684 C   0  0  0  0  0  0  0  0  0  0  0  0
   -4.3762  -20.4436   25.8363 N   0  0  0  0  0  0  0  0  0  0  0  0
   -2.7266  -19.5235   25.9054 C   0  0  0  0  0  0  0  0  0  0  0  0
   -2.2273  -17.5343   25.5041 C   0  0  0  0  0  0  0  0  0  0  0  0
   -1.8640  -15.7530   24.3445 C   0  0  0  0  0  0  0  0  0  0  0  0
   -0.8138  -14.9098   22.6602 C   0  0  0  0  0  0  0  0  0  0  0  0
    0.8333  -15.2314   21.5967 O   0  0  0  0  0  0  0  0  0  0  0  0
    2.2489  -14.5918   20.4849 C   0  0  0  0  0  0  0  0  0  0  0  0
    2.4825  -14.7667   18.8149 C   0  0  0  0  0  0  0  0  0  0  0  0
    3.5578  -14.1620   17.9866 C   0  0  0  0  0  0  0  0  0  0  0  0
    4.6460  -13.3407   18.4603 C   0  0  0  0  0  0  0  0  0  0  0  0
    5.5842  -12.9261   17.4768 C   0  0  0  0  0  0  0  0  0  0  0  0
    6.7074  -12.1603   17.7644 C   0  0  0  0  0  0  0  0  0  0  0  0
    6.9240  -11.7651   19.0613 C   0  0  0  0  0  0  0  0  0  0  0  0
    6.0012  -12.1520   20.0567 C   0  0  0  0  0  0  0  0  0  0  0  0
    4.7582  -12.9579   19.8755 C   0  0  0  0  0  0  0  0  0  0  0  0
    3.4613  -13.4344   20.9165 C   0  0  0  0  0  0  0  0  0  0  0  0
  -10.9148  -24.2996   30.0498 H   0  0  0  0  0  0  0  0  0  0  0  0
  -12.0936  -24.7099   28.7948 H   0  0  0  0  0  0  0  0  0  0  0  0
  -12.1884  -23.1309   29.6047 H   0  0  0  0  0  0  0  0  0  0  0  0
  -10.8073  -21.6467   29.2314 H   0  0  0  0  0  0  0  0  0  0  0  0
   -9.2379  -19.9559   28.1307 H   0  0  0  0  0  0  0  0  0  0  0  0
  -10.1554  -20.9252   26.8926 H   0  0  0  0  0  0  0  0  0  0  0  0
   -7.2260  -20.3346   27.5858 H   0  0  0  0  0  0  0  0  0  0  0  0
   -7.3437  -22.2695   27.6826 H   0  0  0  0  0  0  0  0  0  0  0  0
   -6.5888  -23.9516   24.7704 H   0  0  0  0  0  0  0  0  0  0  0  0
   -5.6722  -24.2453   22.5273 H   0  0  0  0  0  0  0  0  0  0  0  0
   -3.7030  -22.8954   21.8525 H   0  0  0  0  0  0  0  0  0  0  0  0
   -2.8548  -21.1296   23.3282 H   0  0  0  0  0  0  0  0  0  0  0  0
   -2.4915  -19.7946   26.9447 H   0  0  0  0  0  0  0  0  0  0  0  0
   -2.4570  -20.1995   25.1296 H   0  0  0  0  0  0  0  0  0  0  0  0
   -1.2311  -17.8591   25.8813 H   0  0  0  0  0  0  0  0  0  0  0  0
   -2.6243  -17.0879   26.4346 H   0  0  0  0  0  0  0  0  0  0  0  0
   -2.9094  -15.5560   24.0399 H   0  0  0  0  0  0  0  0  0  0  0  0
   -1.8263  -14.9358   25.0813 H   0  0  0  0  0  0  0  0  0  0  0  0
   -0.3330  -14.0699   23.1543 H   0  0  0  0  0  0  0  0  0  0  0  0
   -1.4769  -14.7843   21.7982 H   0  0  0  0  0  0  0  0  0  0  0  0
    1.7783  -15.3428   18.1885 H   0  0  0  0  0  0  0  0  0  0  0  0
    3.5162  -14.4113   16.9241 H   0  0  0  0  0  0  0  0  0  0  0  0
    5.4432  -13.2326   16.4400 H   0  0  0  0  0  0  0  0  0  0  0  0
    7.3965  -11.8784   16.9730 H   0  0  0  0  0  0  0  0  0  0  0  0
    7.7792  -11.1463   19.3171 H   0  0  0  0  0  0  0  0  0  0  0  0
    6.2030  -11.6802   21.0089 H   0  0  0  0  0  0  0  0  0  0  0  0
    3.4431  -13.0986   21.9434 H   0  0  0  0  0  0  0  0  0  0  0  0
  1  2  1  0
  2  3  2  0
  2  4  1  0
  4  5  1  0
  5  6  1  0
  6  7  1  0
  7  8  2  0
  8  9  1  0
  9 10  2  0
 10 11  1  0
 11 12  2  0
 12 13  1  0
 13 14  2  0
 14 15  1  0
 15 16  1  0
 16 17  1  0
 17 18  1  0
 18 19  1  0
 19 20  1  0
 20 21  1  0
 21 22  2  0
 22 23  1  0
 23 24  2  0
 24 25  1  0
 25 26  2  0
 26 27  1  0
 27 28  2  0
 28 29  1  0
 29 30  2  0
 15  7  1  0
 30 21  1  0
 14  9  1  0
 29 24  1  0
  1 31  1  0
  1 32  1  0
  1 33  1  0
  4 34  1  0
  5 35  1  0
  5 36  1  0
  6 37  1  0
  6 38  1  0
 10 39  1  0
 11 40  1  0
 12 41  1  0
 13 42  1  0
 16 43  1  0
 16 44  1  0
 17 45  1  0
 17 46  1  0
 18 47  1  0
 18 48  1  0
 19 49  1  0
 19 50  1  0
 22 51  1  0
 23 52  1  0
 25 53  1  0
 26 54  1  0
 27 55  1  0
 28 56  1  0
 30 57  1  0
M  END
>  <Energy>  (1484) 
1157.1382616478263

>  <compound_id>  (1484) 
6834

>  <target_id>  (1484) 
1

>  <reference_id>  (1484) 
94

>  <inspiration_ids>  (1484) 
[94, 97]

>  <energy_score>  (1484) 
1089.3872570504036

>  <distance_score>  (1484) 
13.049420165151018

>  <path>  (1484) 
/opt/xchem-fragalysis-2/maxwin/BulkDock/SCRATCH/511018/C6834-P94/C6834-P94.minimised.mol

>  <scratch_subdir>  (1484) 
/opt/xchem-fragalysis-2/maxwin/BulkDock/SCRATCH/511018/C6834-P94

>  <fragmenstein_runtime>  (1484) 
53.73278880119324

>  <fragmenstein_outcome>  (1484) 
too moved

>  <fragmenstein_mode>  (1484) 
expansion

>  <fragmenstein_error>  (1484) 


$$$$
C6834-P97
     RDKit          3D

 57 60  0  0  0  0  0  0  0  0999 V2000
    3.1926  -15.8739   31.8667 C   0  0  0  0  0  0  0  0  0  0  0  0
    3.7004  -14.4571   31.6953 C   0  0  0  0  0  0  0  0  0  0  0  0
    4.4905  -14.0042   32.4711 O   0  0  0  0  0  0  0  0  0  0  0  0
    3.0790  -13.8740   30.5472 N   0  0  0  0  0  0  0  0  0  0  0  0
    3.2782  -12.5989   29.9112 C   0  0  0  0  0  0  0  0  0  0  0  0
    2.0129  -12.0707   29.2384 C   0  0  0  0  0  0  0  0  0  0  0  0
    1.5094  -13.0165   28.1340 C   0  0  0  0  0  0  0  0  0  0  0  0
    0.9610  -14.1720   28.4677 N   0  0  0  0  0  0  0  0  0  0  0  0
   -0.3006  -13.7134   28.5713 C   0  0  0  0  0  0  0  0  0  0  0  0
   -1.1554  -13.9026   29.6819 C   0  0  0  0  0  0  0  0  0  0  0  0
   -2.2051  -13.0261   29.8911 C   0  0  0  0  0  0  0  0  0  0  0  0
   -2.4363  -12.0355   28.9477 C   0  0  0  0  0  0  0  0  0  0  0  0
   -1.6578  -11.9215   27.7676 C   0  0  0  0  0  0  0  0  0  0  0  0
   -0.5264  -12.7378   27.5551 C   0  0  0  0  0  0  0  0  0  0  0  0
    0.8000  -12.5089   26.9426 N   0  0  0  0  0  0  0  0  0  0  0  0
    1.5479  -12.8302   25.3777 C   0  0  0  0  0  0  0  0  0  0  0  0
    2.4290  -11.9176   23.7621 C   0  0  0  0  0  0  0  0  0  0  0  0
    3.5671  -10.4381   22.7700 C   0  0  0  0  0  0  0  0  0  0  0  0
    5.2131   -9.3974   22.8021 C   0  0  0  0  0  0  0  0  0  0  0  0
    5.4232   -7.8354   22.1418 O   0  0  0  0  0  0  0  0  0  0  0  0
    6.7371   -7.1750   21.6903 C   0  0  0  0  0  0  0  0  0  0  0  0
    8.0479   -8.2918   21.3566 C   0  0  0  0  0  0  0  0  0  0  0  0
    9.6195   -7.7096   20.7003 C   0  0  0  0  0  0  0  0  0  0  0  0
    9.9577   -5.7681   20.2948 C   0  0  0  0  0  0  0  0  0  0  0  0
   11.6981   -5.5135   20.2267 C   0  0  0  0  0  0  0  0  0  0  0  0
   12.4915   -4.4411   20.2769 C   0  0  0  0  0  0  0  0  0  0  0  0
   11.4669   -3.6372   20.6420 C   0  0  0  0  0  0  0  0  0  0  0  0
    9.4779   -3.5518   20.4400 C   0  0  0  0  0  0  0  0  0  0  0  0
    8.4928   -4.4501   20.7545 C   0  0  0  0  0  0  0  0  0  0  0  0
    6.9392   -5.3503   21.4062 C   0  0  0  0  0  0  0  0  0  0  0  0
    3.6023  -16.3020   32.7863 H   0  0  0  0  0  0  0  0  0  0  0  0
    3.5156  -16.4867   31.0215 H   0  0  0  0  0  0  0  0  0  0  0  0
    2.1012  -15.8781   31.9383 H   0  0  0  0  0  0  0  0  0  0  0  0
    2.5197  -14.5863   30.0733 H   0  0  0  0  0  0  0  0  0  0  0  0
    4.0897  -12.7320   29.1912 H   0  0  0  0  0  0  0  0  0  0  0  0
    3.6280  -11.8933   30.6721 H   0  0  0  0  0  0  0  0  0  0  0  0
    2.1572  -11.0549   28.8582 H   0  0  0  0  0  0  0  0  0  0  0  0
    1.2307  -11.9789   30.0038 H   0  0  0  0  0  0  0  0  0  0  0  0
   -0.8702  -14.6034   30.4599 H   0  0  0  0  0  0  0  0  0  0  0  0
   -2.8195  -13.1017   30.7827 H   0  0  0  0  0  0  0  0  0  0  0  0
   -3.2523  -11.3319   29.1083 H   0  0  0  0  0  0  0  0  0  0  0  0
   -1.8950  -11.0744   27.1648 H   0  0  0  0  0  0  0  0  0  0  0  0
    2.2816  -13.4970   25.8414 H   0  0  0  0  0  0  0  0  0  0  0  0
    0.8820  -13.6460   25.1225 H   0  0  0  0  0  0  0  0  0  0  0  0
    1.5522  -11.7566   23.1695 H   0  0  0  0  0  0  0  0  0  0  0  0
    2.9677  -12.7982   23.4058 H   0  0  0  0  0  0  0  0  0  0  0  0
    2.9991   -9.6648   22.2483 H   0  0  0  0  0  0  0  0  0  0  0  0
    4.1698  -11.1905   22.2584 H   0  0  0  0  0  0  0  0  0  0  0  0
    5.9259   -9.9850   22.2174 H   0  0  0  0  0  0  0  0  0  0  0  0
    5.5780   -9.2591   23.8179 H   0  0  0  0  0  0  0  0  0  0  0  0
    7.9464   -9.3491   21.5714 H   0  0  0  0  0  0  0  0  0  0  0  0
   10.4078   -8.4497   20.8246 H   0  0  0  0  0  0  0  0  0  0  0  0
   12.2706   -6.3862   20.5571 H   0  0  0  0  0  0  0  0  0  0  0  0
   13.5204   -4.4175   20.5801 H   0  0  0  0  0  0  0  0  0  0  0  0
   11.7850   -3.5355   21.7615 H   0  0  0  0  0  0  0  0  0  0  0  0
    8.9053   -3.9023   19.5991 H   0  0  0  0  0  0  0  0  0  0  0  0
    6.1121   -4.7098   21.7184 H   0  0  0  0  0  0  0  0  0  0  0  0
  1  2  1  0
  2  3  2  0
  2  4  1  0
  4  5  1  0
  5  6  1  0
  6  7  1  0
  7  8  2  0
  8  9  1  0
  9 10  2  0
 10 11  1  0
 11 12  2  0
 12 13  1  0
 13 14  2  0
 14 15  1  0
 15 16  1  0
 16 17  1  0
 17 18  1  0
 18 19  1  0
 19 20  1  0
 20 21  1  0
 21 22  2  0
 22 23  1  0
 23 24  2  0
 24 25  1  0
 25 26  2  0
 26 27  1  0
 27 28  2  0
 28 29  1  0
 29 30  2  0
 15  7  1  0
 30 21  1  0
 14  9  1  0
 29 24  1  0
  1 31  1  0
  1 32  1  0
  1 33  1  0
  4 34  1  0
  5 35  1  0
  5 36  1  0
  6 37  1  0
  6 38  1  0
 10 39  1  0
 11 40  1  0
 12 41  1  0
 13 42  1  0
 16 43  1  0
 16 44  1  0
 17 45  1  0
 17 46  1  0
 18 47  1  0
 18 48  1  0
 19 49  1  0
 19 50  1  0
 22 51  1  0
 23 52  1  0
 25 53  1  0
 26 54  1  0
 27 55  1  0
 28 56  1  0
 30 57  1  0
M  END
>  <Energy>  (1485) 
1220.7636594874396

>  <compound_id>  (1485) 
6834

>  <target_id>  (1485) 
1

>  <reference_id>  (1485) 
97

>  <inspiration_ids>  (1485) 
[94, 97]

>  <energy_score>  (1485) 
1153.012654890029

>  <distance_score>  (1485) 
13.383456032521737

>  <path>  (1485) 
/opt/xchem-fragalysis-2/maxwin/BulkDock/SCRATCH/511018/C6834-P97/C6834-P97.minimised.mol

>  <scratch_subdir>  (1485) 
/opt/xchem-fragalysis-2/maxwin/BulkDock/SCRATCH/511018/C6834-P97

>  <fragmenstein_runtime>  (1485) 
38.579862117767334

>  <fragmenstein_outcome>  (1485) 
too moved

>  <fragmenstein_mode>  (1485) 
expansion

>  <fragmenstein_error>  (1485) 


$$$$
C6827-P94
     RDKit          3D

 47 50  0  0  0  0  0  0  0  0999 V2000
    2.2104   -8.4019   11.2389 C   0  0  0  0  0  0  0  0  0  0  0  0
    3.2414   -9.3048   11.8846 C   0  0  0  0  0  0  0  0  0  0  0  0
    2.8927  -10.2293   12.5579 O   0  0  0  0  0  0  0  0  0  0  0  0
    4.5487   -8.8307   11.5536 N   0  0  0  0  0  0  0  0  0  0  0  0
    5.8537   -9.3700   11.8470 C   0  0  0  0  0  0  0  0  0  0  0  0
    6.6151   -9.7398   10.5733 C   0  0  0  0  0  0  0  0  0  0  0  0
    6.9003   -8.5144    9.6697 C   0  0  0  0  0  0  0  0  0  0  0  0
    5.9785   -7.5829    9.4589 N   0  0  0  0  0  0  0  0  0  0  0  0
    6.3637   -6.8925    8.3415 C   0  0  0  0  0  0  0  0  0  0  0  0
    5.7218   -5.8497    7.6627 C   0  0  0  0  0  0  0  0  0  0  0  0
    6.2179   -5.4483    6.4167 C   0  0  0  0  0  0  0  0  0  0  0  0
    7.3319   -6.0768    5.8608 C   0  0  0  0  0  0  0  0  0  0  0  0
    8.0155   -7.0812    6.5555 C   0  0  0  0  0  0  0  0  0  0  0  0
    7.5323   -7.4206    7.8279 C   0  0  0  0  0  0  0  0  0  0  0  0
    8.0108   -8.2041    8.8692 N   0  0  0  0  0  0  0  0  0  0  0  0
    9.4378   -8.5185    8.9987 C   0  0  0  0  0  0  0  0  0  0  0  0
   10.2951   -7.3112    9.2351 C   0  0  0  0  0  0  0  0  0  0  0  0
   10.3618   -6.0990    8.5652 C   0  0  0  0  0  0  0  0  0  0  0  0
   11.4139   -5.1814    9.0659 C   0  0  0  0  0  0  0  0  0  0  0  0
   12.4155   -5.0050   10.4801 C   0  0  0  0  0  0  0  0  0  0  0  0
   13.6640   -3.9658   11.2827 C   0  0  0  0  0  0  0  0  0  0  0  0
   13.4851   -3.0842   12.4052 C   0  0  0  0  0  0  0  0  0  0  0  0
   12.3071   -3.3781   13.0258 C   0  0  0  0  0  0  0  0  0  0  0  0
   11.6553   -4.6217   12.5075 C   0  0  0  0  0  0  0  0  0  0  0  0
   11.8486   -5.8012   11.2953 C   0  0  0  0  0  0  0  0  0  0  0  0
   11.1913   -7.2383   10.4362 C   0  0  0  0  0  0  0  0  0  0  0  0
    2.3010   -8.4519   10.1501 H   0  0  0  0  0  0  0  0  0  0  0  0
    2.3474   -7.3719   11.5804 H   0  0  0  0  0  0  0  0  0  0  0  0
    1.2059   -8.7310   11.5214 H   0  0  0  0  0  0  0  0  0  0  0  0
    4.4655   -8.0638   10.8848 H   0  0  0  0  0  0  0  0  0  0  0  0
    6.3843   -8.6000   12.4103 H   0  0  0  0  0  0  0  0  0  0  0  0
    5.7296  -10.2506   12.4850 H   0  0  0  0  0  0  0  0  0  0  0  0
    7.5519  -10.2482   10.8014 H   0  0  0  0  0  0  0  0  0  0  0  0
    6.0150  -10.4386    9.9765 H   0  0  0  0  0  0  0  0  0  0  0  0
    4.8182   -5.4110    8.0707 H   0  0  0  0  0  0  0  0  0  0  0  0
    5.7082   -4.6614    5.8661 H   0  0  0  0  0  0  0  0  0  0  0  0
    7.6865   -5.7689    4.8794 H   0  0  0  0  0  0  0  0  0  0  0  0
    8.9056   -7.5402    6.1382 H   0  0  0  0  0  0  0  0  0  0  0  0
    9.7441   -9.0284    8.0789 H   0  0  0  0  0  0  0  0  0  0  0  0
    9.5273   -9.2338    9.8215 H   0  0  0  0  0  0  0  0  0  0  0  0
    9.8670   -5.8641    7.6392 H   0  0  0  0  0  0  0  0  0  0  0  0
   11.6187   -4.4695    8.2364 H   0  0  0  0  0  0  0  0  0  0  0  0
   14.4201   -3.4703   10.6407 H   0  0  0  0  0  0  0  0  0  0  0  0
   14.1548   -2.2782   12.6577 H   0  0  0  0  0  0  0  0  0  0  0  0
   11.9120   -2.8443   13.8802 H   0  0  0  0  0  0  0  0  0  0  0  0
   10.9185   -4.8045   13.2742 H   0  0  0  0  0  0  0  0  0  0  0  0
   11.5731   -8.2634   10.6478 H   0  0  0  0  0  0  0  0  0  0  0  0
  1  2  1  0
  2  3  2  0
  2  4  1  0
  4  5  1  0
  5  6  1  0
  6  7  1  0
  7  8  2  0
  8  9  1  0
  9 10  2  0
 10 11  1  0
 11 12  2  0
 12 13  1  0
 13 14  2  0
 14 15  1  0
 15 16  1  0
 16 17  1  0
 17 18  2  0
 18 19  1  0
 19 20  2  0
 20 21  1  0
 21 22  2  0
 22 23  1  0
 23 24  2  0
 24 25  1  0
 25 26  2  0
 15  7  1  0
 26 17  1  0
 14  9  1  0
 25 20  1  0
  1 27  1  0
  1 28  1  0
  1 29  1  0
  4 30  1  0
  5 31  1  0
  5 32  1  0
  6 33  1  0
  6 34  1  0
 10 35  1  0
 11 36  1  0
 12 37  1  0
 13 38  1  0
 16 39  1  0
 16 40  1  0
 18 41  1  0
 19 42  1  0
 21 43  1  0
 22 44  1  0
 23 45  1  0
 24 46  1  0
 26 47  1  0
M  END
>  <Energy>  (1486) 
306.66710598132272

>  <compound_id>  (1486) 
6827

>  <target_id>  (1486) 
1

>  <reference_id>  (1486) 
94

>  <inspiration_ids>  (1486) 
[94, 97]

>  <energy_score>  (1486) 
238.1887060804969

>  <distance_score>  (1486) 
19.272496059639135

>  <path>  (1486) 
/opt/xchem-fragalysis-2/maxwin/BulkDock/SCRATCH/511018/C6827-P94/C6827-P94.minimised.mol

>  <scratch_subdir>  (1486) 
/opt/xchem-fragalysis-2/maxwin/BulkDock/SCRATCH/511018/C6827-P94

>  <fragmenstein_runtime>  (1486) 
38.39840483665466

>  <fragmenstein_outcome>  (1486) 
too moved

>  <fragmenstein_mode>  (1486) 
expansion

>  <fragmenstein_error>  (1486) 


$$$$
C6827-P97
     RDKit          3D

 47 50  0  0  0  0  0  0  0  0999 V2000
    4.7220  -12.7734   23.0733 C   0  0  0  0  0  0  0  0  0  0  0  0
    5.1314  -12.9639   21.6270 C   0  0  0  0  0  0  0  0  0  0  0  0
    5.0350  -14.0367   21.1085 O   0  0  0  0  0  0  0  0  0  0  0  0
    5.6345  -11.7156   21.1172 N   0  0  0  0  0  0  0  0  0  0  0  0
    6.1026  -11.3364   19.7590 C   0  0  0  0  0  0  0  0  0  0  0  0
    7.3968  -10.4261   19.2059 C   0  0  0  0  0  0  0  0  0  0  0  0
    8.0589   -8.5522   18.9705 C   0  0  0  0  0  0  0  0  0  0  0  0
    7.1494   -7.1228   18.1114 N   0  0  0  0  0  0  0  0  0  0  0  0
    7.6762   -6.6579   16.2116 C   0  0  0  0  0  0  0  0  0  0  0  0
    7.5570   -5.2846   15.9749 C   0  0  0  0  0  0  0  0  0  0  0  0
    8.8777   -4.2808   15.1170 C   0  0  0  0  0  0  0  0  0  0  0  0
   10.5451   -4.8479   14.8644 C   0  0  0  0  0  0  0  0  0  0  0  0
   10.8939   -6.5384   15.6341 C   0  0  0  0  0  0  0  0  0  0  0  0
    9.4530   -7.7219   16.1550 C   0  0  0  0  0  0  0  0  0  0  0  0
    8.9727   -8.6194   18.1457 N   0  0  0  0  0  0  0  0  0  0  0  0
    9.7409   -6.5176   18.6778 C   0  0  0  0  0  0  0  0  0  0  0  0
   11.0999   -5.1414   17.8053 C   0  0  0  0  0  0  0  0  0  0  0  0
   11.4332   -4.1031   16.8841 C   0  0  0  0  0  0  0  0  0  0  0  0
   12.6849   -3.4122   16.6101 C   0  0  0  0  0  0  0  0  0  0  0  0
   13.8273   -3.5600   17.3706 C   0  0  0  0  0  0  0  0  0  0  0  0
   15.0175   -2.8928   17.0523 C   0  0  0  0  0  0  0  0  0  0  0  0
   16.1096   -2.9861   17.9066 C   0  0  0  0  0  0  0  0  0  0  0  0
   16.0064   -3.7249   19.0826 C   0  0  0  0  0  0  0  0  0  0  0  0
   14.8168   -4.3823   19.3971 C   0  0  0  0  0  0  0  0  0  0  0  0
   13.7200   -4.3162   18.5261 C   0  0  0  0  0  0  0  0  0  0  0  0
   12.4840   -4.9802   18.7531 C   0  0  0  0  0  0  0  0  0  0  0  0
    5.6014  -12.5393   23.6797 H   0  0  0  0  0  0  0  0  0  0  0  0
    4.2683  -13.6947   23.4504 H   0  0  0  0  0  0  0  0  0  0  0  0
    3.9859  -11.9684   23.1537 H   0  0  0  0  0  0  0  0  0  0  0  0
    5.6406  -11.0350   21.8622 H   0  0  0  0  0  0  0  0  0  0  0  0
    6.4323  -12.3342   19.7106 H   0  0  0  0  0  0  0  0  0  0  0  0
    5.4667  -11.6390   18.9489 H   0  0  0  0  0  0  0  0  0  0  0  0
    7.3382  -10.5796   18.1391 H   0  0  0  0  0  0  0  0  0  0  0  0
    8.2058  -11.0620   19.3564 H   0  0  0  0  0  0  0  0  0  0  0  0
    6.4909   -5.3215   16.0351 H   0  0  0  0  0  0  0  0  0  0  0  0
    8.7186   -5.1510   14.4072 H   0  0  0  0  0  0  0  0  0  0  0  0
   11.2728   -4.1065   14.5294 H   0  0  0  0  0  0  0  0  0  0  0  0
   11.8801   -6.7192   16.1030 H   0  0  0  0  0  0  0  0  0  0  0  0
    9.9119   -5.9966   19.7521 H   0  0  0  0  0  0  0  0  0  0  0  0
    8.9799   -6.0322   19.1118 H   0  0  0  0  0  0  0  0  0  0  0  0
   10.6953   -3.5159   16.3694 H   0  0  0  0  0  0  0  0  0  0  0  0
   12.6810   -2.6795   15.8010 H   0  0  0  0  0  0  0  0  0  0  0  0
   15.0976   -2.2957   16.1477 H   0  0  0  0  0  0  0  0  0  0  0  0
   17.0370   -2.4739   17.6650 H   0  0  0  0  0  0  0  0  0  0  0  0
   16.8547   -3.7880   19.7596 H   0  0  0  0  0  0  0  0  0  0  0  0
   14.7534   -4.9513   20.3210 H   0  0  0  0  0  0  0  0  0  0  0  0
   12.3995   -5.4370   19.7513 H   0  0  0  0  0  0  0  0  0  0  0  0
  1  2  1  0
  2  3  2  0
  2  4  1  0
  4  5  1  0
  5  6  1  0
  6  7  1  0
  7  8  2  0
  8  9  1  0
  9 10  2  0
 10 11  1  0
 11 12  2  0
 12 13  1  0
 13 14  2  0
 14 15  1  0
 15 16  1  0
 16 17  1  0
 17 18  2  0
 18 19  1  0
 19 20  2  0
 20 21  1  0
 21 22  2  0
 22 23  1  0
 23 24  2  0
 24 25  1  0
 25 26  2  0
 15  7  1  0
 26 17  1  0
 14  9  1  0
 25 20  1  0
  1 27  1  0
  1 28  1  0
  1 29  1  0
  4 30  1  0
  5 31  1  0
  5 32  1  0
  6 33  1  0
  6 34  1  0
 10 35  1  0
 11 36  1  0
 12 37  1  0
 13 38  1  0
 16 39  1  0
 16 40  1  0
 18 41  1  0
 19 42  1  0
 21 43  1  0
 22 44  1  0
 23 45  1  0
 24 46  1  0
 26 47  1  0
M  END
>  <Energy>  (1487) 
1997.2354853412469

>  <compound_id>  (1487) 
6827

>  <target_id>  (1487) 
1

>  <reference_id>  (1487) 
97

>  <inspiration_ids>  (1487) 
[94, 97]

>  <energy_score>  (1487) 
1928.7570854404407

>  <distance_score>  (1487) 
15.412470371499102

>  <path>  (1487) 
/opt/xchem-fragalysis-2/maxwin/BulkDock/SCRATCH/511018/C6827-P97/C6827-P97.minimised.mol

>  <scratch_subdir>  (1487) 
/opt/xchem-fragalysis-2/maxwin/BulkDock/SCRATCH/511018/C6827-P97

>  <fragmenstein_runtime>  (1487) 
23.438494205474854

>  <fragmenstein_outcome>  (1487) 
too moved

>  <fragmenstein_mode>  (1487) 
expansion

>  <fragmenstein_error>  (1487) 


$$$$
C6834-P94
     RDKit          3D

 57 60  0  0  0  0  0  0  0  0999 V2000
  -11.5062  -23.8950   29.2248 C   0  0  0  0  0  0  0  0  0  0  0  0
  -10.5887  -23.3444   28.1506 C   0  0  0  0  0  0  0  0  0  0  0  0
  -10.2266  -24.0657   27.2639 O   0  0  0  0  0  0  0  0  0  0  0  0
  -10.2467  -21.9649   28.4498 N   0  0  0  0  0  0  0  0  0  0  0  0
   -9.3888  -20.9426   27.6727 C   0  0  0  0  0  0  0  0  0  0  0  0
   -7.4551  -21.3242   27.1492 C   0  0  0  0  0  0  0  0  0  0  0  0
   -5.5665  -21.0490   26.8642 C   0  0  0  0  0  0  0  0  0  0  0  0
   -5.2042  -22.3359   26.7497 N   0  0  0  0  0  0  0  0  0  0  0  0
   -5.1696  -22.4698   25.3929 C   0  0  0  0  0  0  0  0  0  0  0  0
   -5.7404  -23.3700   24.4893 C   0  0  0  0  0  0  0  0  0  0  0  0
   -5.2474  -23.5077   23.2000 C   0  0  0  0  0  0  0  0  0  0  0  0
   -4.1659  -22.7423   22.8245 C   0  0  0  0  0  0  0  0  0  0  0  0
   -3.6918  -21.7288   23.6624 C   0  0  0  0  0  0  0  0  0  0  0  0
   -4.3598  -21.4913   24.8684 C   0  0  0  0  0  0  0  0  0  0  0  0
   -4.3762  -20.4436   25.8363 N   0  0  0  0  0  0  0  0  0  0  0  0
   -2.7266  -19.5235   25.9054 C   0  0  0  0  0  0  0  0  0  0  0  0
   -2.2273  -17.5343   25.5041 C   0  0  0  0  0  0  0  0  0  0  0  0
   -1.8640  -15.7530   24.3445 C   0  0  0  0  0  0  0  0  0  0  0  0
   -0.8138  -14.9098   22.6602 C   0  0  0  0  0  0  0  0  0  0  0  0
    0.8333  -15.2314   21.5967 O   0  0  0  0  0  0  0  0  0  0  0  0
    2.2489  -14.5918   20.4849 C   0  0  0  0  0  0  0  0  0  0  0  0
    2.4825  -14.7667   18.8149 C   0  0  0  0  0  0  0  0  0  0  0  0
    3.5578  -14.1620   17.9866 C   0  0  0  0  0  0  0  0  0  0  0  0
    4.6460  -13.3407   18.4603 C   0  0  0  0  0  0  0  0  0  0  0  0
    5.5842  -12.9261   17.4768 C   0  0  0  0  0  0  0  0  0  0  0  0
    6.7074  -12.1603   17.7644 C   0  0  0  0  0  0  0  0  0  0  0  0
    6.9240  -11.7651   19.0613 C   0  0  0  0  0  0  0  0  0  0  0  0
    6.0012  -12.1520   20.0567 C   0  0  0  0  0  0  0  0  0  0  0  0
    4.7582  -12.9579   19.8755 C   0  0  0  0  0  0  0  0  0  0  0  0
    3.4613  -13.4344   20.9165 C   0  0  0  0  0  0  0  0  0  0  0  0
  -10.9148  -24.2996   30.0498 H   0  0  0  0  0  0  0  0  0  0  0  0
  -12.0936  -24.7099   28.7948 H   0  0  0  0  0  0  0  0  0  0  0  0
  -12.1884  -23.1309   29.6047 H   0  0  0  0  0  0  0  0  0  0  0  0
  -10.8073  -21.6467   29.2314 H   0  0  0  0  0  0  0  0  0  0  0  0
   -9.2379  -19.9559   28.1307 H   0  0  0  0  0  0  0  0  0  0  0  0
  -10.1554  -20.9252   26.8926 H   0  0  0  0  0  0  0  0  0  0  0  0
   -7.2260  -20.3346   27.5858 H   0  0  0  0  0  0  0  0  0  0  0  0
   -7.3437  -22.2695   27.6826 H   0  0  0  0  0  0  0  0  0  0  0  0
   -6.5888  -23.9516   24.7704 H   0  0  0  0  0  0  0  0  0  0  0  0
   -5.6722  -24.2453   22.5273 H   0  0  0  0  0  0  0  0  0  0  0  0
   -3.7030  -22.8954   21.8525 H   0  0  0  0  0  0  0  0  0  0  0  0
   -2.8548  -21.1296   23.3282 H   0  0  0  0  0  0  0  0  0  0  0  0
   -2.4915  -19.7946   26.9447 H   0  0  0  0  0  0  0  0  0  0  0  0
   -2.4570  -20.1995   25.1296 H   0  0  0  0  0  0  0  0  0  0  0  0
   -1.2311  -17.8591   25.8813 H   0  0  0  0  0  0  0  0  0  0  0  0
   -2.6243  -17.0879   26.4346 H   0  0  0  0  0  0  0  0  0  0  0  0
   -2.9094  -15.5560   24.0399 H   0  0  0  0  0  0  0  0  0  0  0  0
   -1.8263  -14.9358   25.0813 H   0  0  0  0  0  0  0  0  0  0  0  0
   -0.3330  -14.0699   23.1543 H   0  0  0  0  0  0  0  0  0  0  0  0
   -1.4769  -14.7843   21.7982 H   0  0  0  0  0  0  0  0  0  0  0  0
    1.7783  -15.3428   18.1885 H   0  0  0  0  0  0  0  0  0  0  0  0
    3.5162  -14.4113   16.9241 H   0  0  0  0  0  0  0  0  0  0  0  0
    5.4432  -13.2326   16.4400 H   0  0  0  0  0  0  0  0  0  0  0  0
    7.3965  -11.8784   16.9730 H   0  0  0  0  0  0  0  0  0  0  0  0
    7.7792  -11.1463   19.3171 H   0  0  0  0  0  0  0  0  0  0  0  0
    6.2030  -11.6802   21.0089 H   0  0  0  0  0  0  0  0  0  0  0  0
    3.4431  -13.0986   21.9434 H   0  0  0  0  0  0  0  0  0  0  0  0
  1  2  1  0
  2  3  2  0
  2  4  1  0
  4  5  1  0
  5  6  1  0
  6  7  1  0
  7  8  2  0
  8  9  1  0
  9 10  2  0
 10 11  1  0
 11 12  2  0
 12 13  1  0
 13 14  2  0
 14 15  1  0
 15 16  1  0
 16 17  1  0
 17 18  1  0
 18 19  1  0
 19 20  1  0
 20 21  1  0
 21 22  2  0
 22 23  1  0
 23 24  2  0
 24 25  1  0
 25 26  2  0
 26 27  1  0
 27 28  2  0
 28 29  1  0
 29 30  2  0
 15  7  1  0
 30 21  1  0
 14  9  1  0
 29 24  1  0
  1 31  1  0
  1 32  1  0
  1 33  1  0
  4 34  1  0
  5 35  1  0
  5 36  1  0
  6 37  1  0
  6 38  1  0
 10 39  1  0
 11 40  1  0
 12 41  1  0
 13 42  1  0
 16 43  1  0
 16 44  1  0
 17 45  1  0
 17 46  1  0
 18 47  1  0
 18 48  1  0
 19 49  1  0
 19 50  1  0
 22 51  1  0
 23 52  1  0
 25 53  1  0
 26 54  1  0
 27 55  1  0
 28 56  1  0
 30 57  1  0
M  END
>  <Energy>  (1488) 
1157.1382616478263

>  <compound_id>  (1488) 
6834

>  <target_id>  (1488) 
1

>  <reference_id>  (1488) 
94

>  <inspiration_ids>  (1488) 
[94, 97]

>  <energy_score>  (1488) 
1089.3872570504036

>  <distance_score>  (1488) 
13.049420165151018

>  <path>  (1488) 
/opt/xchem-fragalysis-2/maxwin/BulkDock/SCRATCH/511018/C6834-P94/C6834-P94.minimised.mol

>  <scratch_subdir>  (1488) 
/opt/xchem-fragalysis-2/maxwin/BulkDock/SCRATCH/511018/C6834-P94

>  <fragmenstein_runtime>  (1488) 
55.74930381774902

>  <fragmenstein_outcome>  (1488) 
too moved

>  <fragmenstein_mode>  (1488) 
expansion

>  <fragmenstein_error>  (1488) 


$$$$
C6834-P97
     RDKit          3D

 57 60  0  0  0  0  0  0  0  0999 V2000
    3.1926  -15.8739   31.8667 C   0  0  0  0  0  0  0  0  0  0  0  0
    3.7004  -14.4571   31.6953 C   0  0  0  0  0  0  0  0  0  0  0  0
    4.4905  -14.0042   32.4711 O   0  0  0  0  0  0  0  0  0  0  0  0
    3.0790  -13.8740   30.5472 N   0  0  0  0  0  0  0  0  0  0  0  0
    3.2782  -12.5989   29.9112 C   0  0  0  0  0  0  0  0  0  0  0  0
    2.0129  -12.0707   29.2384 C   0  0  0  0  0  0  0  0  0  0  0  0
    1.5094  -13.0165   28.1340 C   0  0  0  0  0  0  0  0  0  0  0  0
    0.9610  -14.1720   28.4677 N   0  0  0  0  0  0  0  0  0  0  0  0
   -0.3006  -13.7134   28.5713 C   0  0  0  0  0  0  0  0  0  0  0  0
   -1.1554  -13.9026   29.6819 C   0  0  0  0  0  0  0  0  0  0  0  0
   -2.2051  -13.0261   29.8911 C   0  0  0  0  0  0  0  0  0  0  0  0
   -2.4363  -12.0355   28.9477 C   0  0  0  0  0  0  0  0  0  0  0  0
   -1.6578  -11.9215   27.7676 C   0  0  0  0  0  0  0  0  0  0  0  0
   -0.5264  -12.7378   27.5551 C   0  0  0  0  0  0  0  0  0  0  0  0
    0.8000  -12.5089   26.9426 N   0  0  0  0  0  0  0  0  0  0  0  0
    1.5479  -12.8302   25.3777 C   0  0  0  0  0  0  0  0  0  0  0  0
    2.4290  -11.9176   23.7621 C   0  0  0  0  0  0  0  0  0  0  0  0
    3.5671  -10.4381   22.7700 C   0  0  0  0  0  0  0  0  0  0  0  0
    5.2131   -9.3974   22.8021 C   0  0  0  0  0  0  0  0  0  0  0  0
    5.4232   -7.8354   22.1418 O   0  0  0  0  0  0  0  0  0  0  0  0
    6.7371   -7.1750   21.6903 C   0  0  0  0  0  0  0  0  0  0  0  0
    8.0479   -8.2918   21.3566 C   0  0  0  0  0  0  0  0  0  0  0  0
    9.6195   -7.7096   20.7003 C   0  0  0  0  0  0  0  0  0  0  0  0
    9.9577   -5.7681   20.2948 C   0  0  0  0  0  0  0  0  0  0  0  0
   11.6981   -5.5135   20.2267 C   0  0  0  0  0  0  0  0  0  0  0  0
   12.4915   -4.4411   20.2769 C   0  0  0  0  0  0  0  0  0  0  0  0
   11.4669   -3.6372   20.6420 C   0  0  0  0  0  0  0  0  0  0  0  0
    9.4779   -3.5518   20.4400 C   0  0  0  0  0  0  0  0  0  0  0  0
    8.4928   -4.4501   20.7545 C   0  0  0  0  0  0  0  0  0  0  0  0
    6.9392   -5.3503   21.4062 C   0  0  0  0  0  0  0  0  0  0  0  0
    3.6023  -16.3020   32.7863 H   0  0  0  0  0  0  0  0  0  0  0  0
    3.5156  -16.4867   31.0215 H   0  0  0  0  0  0  0  0  0  0  0  0
    2.1012  -15.8781   31.9383 H   0  0  0  0  0  0  0  0  0  0  0  0
    2.5197  -14.5863   30.0733 H   0  0  0  0  0  0  0  0  0  0  0  0
    4.0897  -12.7320   29.1912 H   0  0  0  0  0  0  0  0  0  0  0  0
    3.6280  -11.8933   30.6721 H   0  0  0  0  0  0  0  0  0  0  0  0
    2.1572  -11.0549   28.8582 H   0  0  0  0  0  0  0  0  0  0  0  0
    1.2307  -11.9789   30.0038 H   0  0  0  0  0  0  0  0  0  0  0  0
   -0.8702  -14.6034   30.4599 H   0  0  0  0  0  0  0  0  0  0  0  0
   -2.8195  -13.1017   30.7827 H   0  0  0  0  0  0  0  0  0  0  0  0
   -3.2523  -11.3319   29.1083 H   0  0  0  0  0  0  0  0  0  0  0  0
   -1.8950  -11.0744   27.1648 H   0  0  0  0  0  0  0  0  0  0  0  0
    2.2816  -13.4970   25.8414 H   0  0  0  0  0  0  0  0  0  0  0  0
    0.8820  -13.6460   25.1225 H   0  0  0  0  0  0  0  0  0  0  0  0
    1.5522  -11.7566   23.1695 H   0  0  0  0  0  0  0  0  0  0  0  0
    2.9677  -12.7982   23.4058 H   0  0  0  0  0  0  0  0  0  0  0  0
    2.9991   -9.6648   22.2483 H   0  0  0  0  0  0  0  0  0  0  0  0
    4.1698  -11.1905   22.2584 H   0  0  0  0  0  0  0  0  0  0  0  0
    5.9259   -9.9850   22.2174 H   0  0  0  0  0  0  0  0  0  0  0  0
    5.5780   -9.2591   23.8179 H   0  0  0  0  0  0  0  0  0  0  0  0
    7.9464   -9.3491   21.5714 H   0  0  0  0  0  0  0  0  0  0  0  0
   10.4078   -8.4497   20.8246 H   0  0  0  0  0  0  0  0  0  0  0  0
   12.2706   -6.3862   20.5571 H   0  0  0  0  0  0  0  0  0  0  0  0
   13.5204   -4.4175   20.5801 H   0  0  0  0  0  0  0  0  0  0  0  0
   11.7850   -3.5355   21.7615 H   0  0  0  0  0  0  0  0  0  0  0  0
    8.9053   -3.9023   19.5991 H   0  0  0  0  0  0  0  0  0  0  0  0
    6.1121   -4.7098   21.7184 H   0  0  0  0  0  0  0  0  0  0  0  0
  1  2  1  0
  2  3  2  0
  2  4  1  0
  4  5  1  0
  5  6  1  0
  6  7  1  0
  7  8  2  0
  8  9  1  0
  9 10  2  0
 10 11  1  0
 11 12  2  0
 12 13  1  0
 13 14  2  0
 14 15  1  0
 15 16  1  0
 16 17  1  0
 17 18  1  0
 18 19  1  0
 19 20  1  0
 20 21  1  0
 21 22  2  0
 22 23  1  0
 23 24  2  0
 24 25  1  0
 25 26  2  0
 26 27  1  0
 27 28  2  0
 28 29  1  0
 29 30  2  0
 15  7  1  0
 30 21  1  0
 14  9  1  0
 29 24  1  0
  1 31  1  0
  1 32  1  0
  1 33  1  0
  4 34  1  0
  5 35  1  0
  5 36  1  0
  6 37  1  0
  6 38  1  0
 10 39  1  0
 11 40  1  0
 12 41  1  0
 13 42  1  0
 16 43  1  0
 16 44  1  0
 17 45  1  0
 17 46  1  0
 18 47  1  0
 18 48  1  0
 19 49  1  0
 19 50  1  0
 22 51  1  0
 23 52  1  0
 25 53  1  0
 26 54  1  0
 27 55  1  0
 28 56  1  0
 30 57  1  0
M  END
>  <Energy>  (1489) 
1220.7636594874396

>  <compound_id>  (1489) 
6834

>  <target_id>  (1489) 
1

>  <reference_id>  (1489) 
97

>  <inspiration_ids>  (1489) 
[94, 97]

>  <energy_score>  (1489) 
1153.012654890029

>  <distance_score>  (1489) 
13.383456032521737

>  <path>  (1489) 
/opt/xchem-fragalysis-2/maxwin/BulkDock/SCRATCH/511018/C6834-P97/C6834-P97.minimised.mol

>  <scratch_subdir>  (1489) 
/opt/xchem-fragalysis-2/maxwin/BulkDock/SCRATCH/511018/C6834-P97

>  <fragmenstein_runtime>  (1489) 
40.040220499038696

>  <fragmenstein_outcome>  (1489) 
too moved

>  <fragmenstein_mode>  (1489) 
expansion

>  <fragmenstein_error>  (1489) 


$$$$
C6846-P94
     RDKit          3D

 54 58  0  0  0  0  0  0  0  0999 V2000
    6.3800  -11.7643   24.6292 O   0  0  0  0  0  0  0  0  0  0  0  0
    6.7657  -12.3755   25.5785 C   0  0  0  0  0  0  0  0  0  0  0  0
    8.0162  -12.3638   26.2233 N   0  0  0  0  0  0  0  0  0  0  0  0
    9.2524  -11.5025   25.9924 C   0  0  0  0  0  0  0  0  0  0  0  0
    9.6167  -11.1423   24.4483 C   0  0  0  0  0  0  0  0  0  0  0  0
   10.0534   -9.7204   24.0155 C   0  0  0  0  0  0  0  0  0  0  0  0
    9.2707   -8.5767   24.0545 C   0  0  0  0  0  0  0  0  0  0  0  0
    9.9513   -7.5327   23.4815 N   0  0  0  0  0  0  0  0  0  0  0  0
   11.1842   -7.9392   23.0401 C   0  0  0  0  0  0  0  0  0  0  0  0
   12.2156   -7.2053   22.4297 C   0  0  0  0  0  0  0  0  0  0  0  0
   13.3760   -7.8843   22.0660 C   0  0  0  0  0  0  0  0  0  0  0  0
   13.4817   -9.2537   22.2738 C   0  0  0  0  0  0  0  0  0  0  0  0
   12.4434   -9.9709   22.8919 C   0  0  0  0  0  0  0  0  0  0  0  0
   11.2707   -9.3088   23.3191 C   0  0  0  0  0  0  0  0  0  0  0  0
    5.4443  -13.4622   26.1955 C   0  0  0  0  0  0  0  0  0  0  0  0
    4.4371  -15.0072   25.8557 C   0  0  0  0  0  0  0  0  0  0  0  0
    3.6640  -16.3005   27.2427 C   0  0  0  0  0  0  0  0  0  0  0  0
    2.3224  -15.8727   28.0999 N   0  0  0  0  0  0  0  0  0  0  0  0
    1.3941  -16.5410   29.5078 C   0  0  0  0  0  0  0  0  0  0  0  0
    1.6879  -16.3680   30.8980 N   0  0  0  0  0  0  0  0  0  0  0  0
    0.9305  -17.1003   31.8127 C   0  0  0  0  0  0  0  0  0  0  0  0
    0.5441  -16.9825   33.1518 C   0  0  0  0  0  0  0  0  0  0  0  0
   -0.2227  -18.0268   33.7252 C   0  0  0  0  0  0  0  0  0  0  0  0
   -0.5175  -19.1947   33.0136 C   0  0  0  0  0  0  0  0  0  0  0  0
   -0.0714  -19.3434   31.7022 C   0  0  0  0  0  0  0  0  0  0  0  0
    0.5844  -18.2243   31.1663 C   0  0  0  0  0  0  0  0  0  0  0  0
    0.9330  -17.8346   29.8964 N   0  0  0  0  0  0  0  0  0  0  0  0
    2.9441  -14.2956   27.3259 C   0  0  0  0  0  0  0  0  0  0  0  0
    4.7041  -13.4856   27.5074 C   0  0  0  0  0  0  0  0  0  0  0  0
    7.9634  -12.9482   27.0497 H   0  0  0  0  0  0  0  0  0  0  0  0
   10.0950  -12.0231   26.4574 H   0  0  0  0  0  0  0  0  0  0  0  0
    9.0660  -10.5721   26.5383 H   0  0  0  0  0  0  0  0  0  0  0  0
   10.4041  -11.8450   24.1469 H   0  0  0  0  0  0  0  0  0  0  0  0
    8.7519  -11.3943   23.8234 H   0  0  0  0  0  0  0  0  0  0  0  0
    8.2658   -8.4295   24.4283 H   0  0  0  0  0  0  0  0  0  0  0  0
    9.5977   -6.5927   23.3884 H   0  0  0  0  0  0  0  0  0  0  0  0
   12.1469   -6.1380   22.2663 H   0  0  0  0  0  0  0  0  0  0  0  0
   14.1999   -7.3423   21.6079 H   0  0  0  0  0  0  0  0  0  0  0  0
   14.3837   -9.7787   21.9673 H   0  0  0  0  0  0  0  0  0  0  0  0
   12.5576  -11.0380   23.0600 H   0  0  0  0  0  0  0  0  0  0  0  0
    4.9079  -13.0716   25.4105 H   0  0  0  0  0  0  0  0  0  0  0  0
    4.8851  -15.3982   24.9294 H   0  0  0  0  0  0  0  0  0  0  0  0
    3.6828  -14.4751   25.2964 H   0  0  0  0  0  0  0  0  0  0  0  0
    3.2742  -17.1744   26.7004 H   0  0  0  0  0  0  0  0  0  0  0  0
    4.2073  -16.6088   28.0953 H   0  0  0  0  0  0  0  0  0  0  0  0
    0.7983  -16.0971   33.7219 H   0  0  0  0  0  0  0  0  0  0  0  0
   -0.5684  -17.9236   34.7516 H   0  0  0  0  0  0  0  0  0  0  0  0
   -1.0994  -19.9834   33.4837 H   0  0  0  0  0  0  0  0  0  0  0  0
   -0.3171  -20.2129   31.1063 H   0  0  0  0  0  0  0  0  0  0  0  0
    0.8464  -18.4909   29.1658 H   0  0  0  0  0  0  0  0  0  0  0  0
    2.2322  -14.0024   26.5238 H   0  0  0  0  0  0  0  0  0  0  0  0
    2.7219  -13.3777   27.6696 H   0  0  0  0  0  0  0  0  0  0  0  0
    5.0866  -13.9262   28.3735 H   0  0  0  0  0  0  0  0  0  0  0  0
    4.8180  -12.5106   28.0158 H   0  0  0  0  0  0  0  0  0  0  0  0
  1  2  2  0
  2  3  1  0
  3  4  1  0
  4  5  1  0
  5  6  1  0
  6  7  2  0
  7  8  1  0
  8  9  1  0
  9 10  2  0
 10 11  1  0
 11 12  2  0
 12 13  1  0
 13 14  2  0
  2 15  1  0
 15 16  1  0
 16 17  1  0
 17 18  1  0
 18 19  1  0
 19 20  2  0
 20 21  1  0
 21 22  2  0
 22 23  1  0
 23 24  2  0
 24 25  1  0
 25 26  2  0
 26 27  1  0
 18 28  1  0
 28 29  1  0
 14  6  1  0
 29 15  1  0
 14  9  1  0
 27 19  1  0
 26 21  1  0
  3 30  1  0
  4 31  1  0
  4 32  1  0
  5 33  1  0
  5 34  1  0
  7 35  1  0
  8 36  1  0
 10 37  1  0
 11 38  1  0
 12 39  1  0
 13 40  1  0
 15 41  1  0
 16 42  1  0
 16 43  1  0
 17 44  1  0
 17 45  1  0
 22 46  1  0
 23 47  1  0
 24 48  1  0
 25 49  1  0
 27 50  1  0
 28 51  1  0
 28 52  1  0
 29 53  1  0
 29 54  1  0
M  END
>  <Energy>  (1490) 
587.36622835006494

>  <compound_id>  (1490) 
6846

>  <target_id>  (1490) 
1

>  <reference_id>  (1490) 
94

>  <inspiration_ids>  (1490) 
[94, 97]

>  <energy_score>  (1490) 
568.8965556265813

>  <distance_score>  (1490) 
13.967786628338814

>  <path>  (1490) 
/opt/xchem-fragalysis-2/maxwin/BulkDock/SCRATCH/511018/C6846-P94/C6846-P94.minimised.mol

>  <scratch_subdir>  (1490) 
/opt/xchem-fragalysis-2/maxwin/BulkDock/SCRATCH/511018/C6846-P94

>  <fragmenstein_runtime>  (1490) 
40.79186940193176

>  <fragmenstein_outcome>  (1490) 
too moved

>  <fragmenstein_mode>  (1490) 
expansion

>  <fragmenstein_error>  (1490) 


$$$$
C6846-P97
     RDKit          3D

 54 58  0  0  0  0  0  0  0  0999 V2000
    5.9788  -11.7624   20.3765 O   0  0  0  0  0  0  0  0  0  0  0  0
    5.9358  -10.9770   21.2799 C   0  0  0  0  0  0  0  0  0  0  0  0
    6.9106  -10.0002   21.7307 N   0  0  0  0  0  0  0  0  0  0  0  0
    8.2904   -9.7358   21.2830 C   0  0  0  0  0  0  0  0  0  0  0  0
    9.3214   -9.4949   22.4214 C   0  0  0  0  0  0  0  0  0  0  0  0
   10.7840   -9.7311   22.0965 C   0  0  0  0  0  0  0  0  0  0  0  0
   11.2740  -10.7788   21.3336 C   0  0  0  0  0  0  0  0  0  0  0  0
   12.6421  -10.6961   21.2744 N   0  0  0  0  0  0  0  0  0  0  0  0
   13.0746   -9.5594   21.9180 C   0  0  0  0  0  0  0  0  0  0  0  0
   14.3454   -8.9670   21.9263 C   0  0  0  0  0  0  0  0  0  0  0  0
   14.4990   -7.7696   22.6233 C   0  0  0  0  0  0  0  0  0  0  0  0
   13.4447   -7.2430   23.3576 C   0  0  0  0  0  0  0  0  0  0  0  0
   12.1913   -7.8714   23.3580 C   0  0  0  0  0  0  0  0  0  0  0  0
   11.9551   -8.9916   22.5359 C   0  0  0  0  0  0  0  0  0  0  0  0
    4.5601  -11.0271   22.3475 C   0  0  0  0  0  0  0  0  0  0  0  0
    3.3334  -10.3243   22.6980 C   0  0  0  0  0  0  0  0  0  0  0  0
    2.0067  -11.6251   23.5275 C   0  0  0  0  0  0  0  0  0  0  0  0
    2.0378  -12.7927   24.4905 N   0  0  0  0  0  0  0  0  0  0  0  0
    1.2905  -13.0992   26.0200 C   0  0  0  0  0  0  0  0  0  0  0  0
    1.7034  -13.8434   27.0865 N   0  0  0  0  0  0  0  0  0  0  0  0
    0.8022  -13.8278   28.1465 C   0  0  0  0  0  0  0  0  0  0  0  0
    0.7221  -14.5834   29.3307 C   0  0  0  0  0  0  0  0  0  0  0  0
   -0.3868  -14.3970   30.1724 C   0  0  0  0  0  0  0  0  0  0  0  0
   -1.3880  -13.4823   29.8430 C   0  0  0  0  0  0  0  0  0  0  0  0
   -1.2891  -12.6926   28.6878 C   0  0  0  0  0  0  0  0  0  0  0  0
   -0.1791  -12.9165   27.8669 C   0  0  0  0  0  0  0  0  0  0  0  0
    0.2922  -12.3528   26.7067 N   0  0  0  0  0  0  0  0  0  0  0  0
    2.9808  -13.6139   23.7800 C   0  0  0  0  0  0  0  0  0  0  0  0
    3.5438  -12.5577   22.5081 C   0  0  0  0  0  0  0  0  0  0  0  0
    6.5046   -9.4473   22.4742 H   0  0  0  0  0  0  0  0  0  0  0  0
    8.2555   -8.8893   20.5990 H   0  0  0  0  0  0  0  0  0  0  0  0
    8.5769  -10.6052   20.6819 H   0  0  0  0  0  0  0  0  0  0  0  0
    9.1712   -8.5019   22.8486 H   0  0  0  0  0  0  0  0  0  0  0  0
    9.0798  -10.1911   23.2376 H   0  0  0  0  0  0  0  0  0  0  0  0
   10.7668  -11.5900   20.8272 H   0  0  0  0  0  0  0  0  0  0  0  0
   13.2422  -11.3124   20.7421 H   0  0  0  0  0  0  0  0  0  0  0  0
   15.1768   -9.4055   21.3825 H   0  0  0  0  0  0  0  0  0  0  0  0
   15.4664   -7.2731   22.6314 H   0  0  0  0  0  0  0  0  0  0  0  0
   13.5962   -6.3441   23.9504 H   0  0  0  0  0  0  0  0  0  0  0  0
   11.4010   -7.4715   23.9796 H   0  0  0  0  0  0  0  0  0  0  0  0
    5.2586  -10.8376   23.2107 H   0  0  0  0  0  0  0  0  0  0  0  0
    3.8747   -9.4903   23.0874 H   0  0  0  0  0  0  0  0  0  0  0  0
    2.8299   -9.5827   22.0298 H   0  0  0  0  0  0  0  0  0  0  0  0
    0.9536  -11.4536   23.4616 H   0  0  0  0  0  0  0  0  0  0  0  0
    1.6743  -11.7559   22.5328 H   0  0  0  0  0  0  0  0  0  0  0  0
    1.4877  -15.3183   29.5560 H   0  0  0  0  0  0  0  0  0  0  0  0
   -0.4631  -14.9785   31.0874 H   0  0  0  0  0  0  0  0  0  0  0  0
   -2.2470  -13.3656   30.5001 H   0  0  0  0  0  0  0  0  0  0  0  0
   -2.0520  -11.9646   28.4365 H   0  0  0  0  0  0  0  0  0  0  0  0
   -0.0593  -11.5206   26.3303 H   0  0  0  0  0  0  0  0  0  0  0  0
    2.6002  -14.4854   23.2919 H   0  0  0  0  0  0  0  0  0  0  0  0
    3.7030  -14.0580   24.4807 H   0  0  0  0  0  0  0  0  0  0  0  0
    3.9077  -12.3744   23.4535 H   0  0  0  0  0  0  0  0  0  0  0  0
    3.7113  -13.0640   21.5345 H   0  0  0  0  0  0  0  0  0  0  0  0
  1  2  2  0
  2  3  1  0
  3  4  1  0
  4  5  1  0
  5  6  1  0
  6  7  2  0
  7  8  1  0
  8  9  1  0
  9 10  2  0
 10 11  1  0
 11 12  2  0
 12 13  1  0
 13 14  2  0
  2 15  1  0
 15 16  1  0
 16 17  1  0
 17 18  1  0
 18 19  1  0
 19 20  2  0
 20 21  1  0
 21 22  2  0
 22 23  1  0
 23 24  2  0
 24 25  1  0
 25 26  2  0
 26 27  1  0
 18 28  1  0
 28 29  1  0
 14  6  1  0
 29 15  1  0
 14  9  1  0
 27 19  1  0
 26 21  1  0
  3 30  1  0
  4 31  1  0
  4 32  1  0
  5 33  1  0
  5 34  1  0
  7 35  1  0
  8 36  1  0
 10 37  1  0
 11 38  1  0
 12 39  1  0
 13 40  1  0
 15 41  1  0
 16 42  1  0
 16 43  1  0
 17 44  1  0
 17 45  1  0
 22 46  1  0
 23 47  1  0
 24 48  1  0
 25 49  1  0
 27 50  1  0
 28 51  1  0
 28 52  1  0
 29 53  1  0
 29 54  1  0
M  END
>  <Energy>  (1491) 
445.71906716195485

>  <compound_id>  (1491) 
6846

>  <target_id>  (1491) 
1

>  <reference_id>  (1491) 
97

>  <inspiration_ids>  (1491) 
[94, 97]

>  <energy_score>  (1491) 
427.2493944384835

>  <distance_score>  (1491) 
14.125997736662816

>  <path>  (1491) 
/opt/xchem-fragalysis-2/maxwin/BulkDock/SCRATCH/511018/C6846-P97/C6846-P97.minimised.mol

>  <scratch_subdir>  (1491) 
/opt/xchem-fragalysis-2/maxwin/BulkDock/SCRATCH/511018/C6846-P97

>  <fragmenstein_runtime>  (1491) 
31.626965761184692

>  <fragmenstein_outcome>  (1491) 
too moved

>  <fragmenstein_mode>  (1491) 
expansion

>  <fragmenstein_error>  (1491) 


$$$$
C6848-P94
     RDKit          3D

 57 61  0  0  0  0  0  0  0  0999 V2000
   10.7209   -4.6630   14.9524 C   0  0  0  0  0  0  0  0  0  0  0  0
   11.1320   -6.4429   15.7613 C   0  0  0  0  0  0  0  0  0  0  0  0
    9.7418   -8.0875   15.5175 C   0  0  0  0  0  0  0  0  0  0  0  0
    9.2393   -9.8388   16.5902 C   0  0  0  0  0  0  0  0  0  0  0  0
   10.2592  -10.4572   16.8821 O   0  0  0  0  0  0  0  0  0  0  0  0
    7.5785  -10.2687   17.1601 N   0  0  0  0  0  0  0  0  0  0  0  0
    7.0125  -11.5106   18.3285 C   0  0  0  0  0  0  0  0  0  0  0  0
    5.4320  -11.8168   18.4795 C   0  0  0  0  0  0  0  0  0  0  0  0
    4.9174  -12.7147   19.8738 C   0  0  0  0  0  0  0  0  0  0  0  0
    4.4380  -11.9485   21.3114 N   0  0  0  0  0  0  0  0  0  0  0  0
    3.4182  -12.5632   22.6667 C   0  0  0  0  0  0  0  0  0  0  0  0
    3.3721  -13.1827   24.0479 N   0  0  0  0  0  0  0  0  0  0  0  0
    2.0183  -13.2699   25.2053 C   0  0  0  0  0  0  0  0  0  0  0  0
    0.7025  -13.4062   25.9092 C   0  0  0  0  0  0  0  0  0  0  0  0
   -1.0447  -13.7561   25.3618 C   0  0  0  0  0  0  0  0  0  0  0  0
   -0.9445  -14.5840   24.3255 C   0  0  0  0  0  0  0  0  0  0  0  0
    0.0461  -14.1047   23.5076 C   0  0  0  0  0  0  0  0  0  0  0  0
    1.5714  -13.5119   24.0375 C   0  0  0  0  0  0  0  0  0  0  0  0
    2.2580  -12.1318   23.3474 N   0  0  0  0  0  0  0  0  0  0  0  0
    5.5751  -10.7379   21.1829 C   0  0  0  0  0  0  0  0  0  0  0  0
    7.0000  -10.9510   20.0358 C   0  0  0  0  0  0  0  0  0  0  0  0
   12.4232   -5.2791   16.6481 C   0  0  0  0  0  0  0  0  0  0  0  0
   13.0489   -4.2258   15.9194 C   0  0  0  0  0  0  0  0  0  0  0  0
   14.1802   -3.7168   16.4516 N   0  0  0  0  0  0  0  0  0  0  0  0
   14.1710   -3.9603   17.7726 C   0  0  0  0  0  0  0  0  0  0  0  0
   15.0452   -3.4064   18.7197 C   0  0  0  0  0  0  0  0  0  0  0  0
   14.8386   -3.6841   20.0566 C   0  0  0  0  0  0  0  0  0  0  0  0
   13.7812   -4.4836   20.4163 C   0  0  0  0  0  0  0  0  0  0  0  0
   12.9413   -5.0343   19.4333 C   0  0  0  0  0  0  0  0  0  0  0  0
   13.0904   -4.8320   18.0226 C   0  0  0  0  0  0  0  0  0  0  0  0
   11.1123   -4.4099   13.9546 H   0  0  0  0  0  0  0  0  0  0  0  0
    9.6788   -4.3397   14.8764 H   0  0  0  0  0  0  0  0  0  0  0  0
   10.9342   -3.8716   15.6854 H   0  0  0  0  0  0  0  0  0  0  0  0
   12.1001   -6.9805   15.7308 H   0  0  0  0  0  0  0  0  0  0  0  0
    9.0004   -7.4382   15.0745 H   0  0  0  0  0  0  0  0  0  0  0  0
   10.0790   -8.9832   14.9293 H   0  0  0  0  0  0  0  0  0  0  0  0
    6.9083   -9.6725   16.7108 H   0  0  0  0  0  0  0  0  0  0  0  0
    7.6800  -12.3703   18.2374 H   0  0  0  0  0  0  0  0  0  0  0  0
    5.1464  -12.4146   17.6057 H   0  0  0  0  0  0  0  0  0  0  0  0
    4.8595  -10.8827   18.4459 H   0  0  0  0  0  0  0  0  0  0  0  0
    5.7662  -13.3225   20.1182 H   0  0  0  0  0  0  0  0  0  0  0  0
    4.0925  -13.2487   19.4597 H   0  0  0  0  0  0  0  0  0  0  0  0
    0.8390  -13.4920   26.8967 H   0  0  0  0  0  0  0  0  0  0  0  0
   -1.9294  -14.1406   25.8913 H   0  0  0  0  0  0  0  0  0  0  0  0
   -1.7343  -15.2859   24.1066 H   0  0  0  0  0  0  0  0  0  0  0  0
   -0.0665  -14.3363   22.4569 H   0  0  0  0  0  0  0  0  0  0  0  0
    2.3833  -11.5887   24.1300 H   0  0  0  0  0  0  0  0  0  0  0  0
    5.9880  -10.5224   22.1744 H   0  0  0  0  0  0  0  0  0  0  0  0
    5.0458   -9.8506   20.8182 H   0  0  0  0  0  0  0  0  0  0  0  0
    7.6318  -11.6824   20.5572 H   0  0  0  0  0  0  0  0  0  0  0  0
    7.5207   -9.9859   20.0434 H   0  0  0  0  0  0  0  0  0  0  0  0
   12.8087   -3.7751   14.9733 H   0  0  0  0  0  0  0  0  0  0  0  0
   14.7994   -3.0646   15.9908 H   0  0  0  0  0  0  0  0  0  0  0  0
   15.8562   -2.7498   18.4183 H   0  0  0  0  0  0  0  0  0  0  0  0
   15.4849   -3.2532   20.8154 H   0  0  0  0  0  0  0  0  0  0  0  0
   13.5747   -4.6725   21.4664 H   0  0  0  0  0  0  0  0  0  0  0  0
   12.1031   -5.5738   19.8489 H   0  0  0  0  0  0  0  0  0  0  0  0
  1  2  1  0
  2  3  1  0
  3  4  1  0
  4  5  2  0
  4  6  1  0
  6  7  1  0
  7  8  1  0
  8  9  1  0
  9 10  1  0
 10 11  1  0
 11 12  2  0
 12 13  1  0
 13 14  2  0
 14 15  1  0
 15 16  2  0
 16 17  1  0
 17 18  2  0
 18 19  1  0
 10 20  1  0
 20 21  1  0
  2 22  1  0
 22 23  2  0
 23 24  1  0
 24 25  1  0
 25 26  2  0
 26 27  1  0
 27 28  2  0
 28 29  1  0
 29 30  2  0
 21  7  1  0
 30 22  1  0
 19 11  1  0
 30 25  1  0
 18 13  1  0
  1 31  1  0
  1 32  1  0
  1 33  1  0
  2 34  1  0
  3 35  1  0
  3 36  1  0
  6 37  1  0
  7 38  1  0
  8 39  1  0
  8 40  1  0
  9 41  1  0
  9 42  1  0
 14 43  1  0
 15 44  1  0
 16 45  1  0
 17 46  1  0
 19 47  1  0
 20 48  1  0
 20 49  1  0
 21 50  1  0
 21 51  1  0
 23 52  1  0
 24 53  1  0
 26 54  1  0
 27 55  1  0
 28 56  1  0
 29 57  1  0
M  END
>  <Energy>  (1492) 
1192.2809128588347

>  <compound_id>  (1492) 
6848

>  <target_id>  (1492) 
1

>  <reference_id>  (1492) 
94

>  <inspiration_ids>  (1492) 
[94, 97]

>  <energy_score>  (1492) 
1154.364137488719

>  <distance_score>  (1492) 
12.696371480477003

>  <path>  (1492) 
/opt/xchem-fragalysis-2/maxwin/BulkDock/SCRATCH/511018/C6848-P94/C6848-P94.minimised.mol

>  <scratch_subdir>  (1492) 
/opt/xchem-fragalysis-2/maxwin/BulkDock/SCRATCH/511018/C6848-P94

>  <fragmenstein_runtime>  (1492) 
50.175254583358765

>  <fragmenstein_outcome>  (1492) 
too moved

>  <fragmenstein_mode>  (1492) 
expansion

>  <fragmenstein_error>  (1492) 


$$$$
C6848-P97
     RDKit          3D

 57 61  0  0  0  0  0  0  0  0999 V2000
    8.1192   -9.5184   26.2357 C   0  0  0  0  0  0  0  0  0  0  0  0
    7.2387   -8.2863   26.4479 C   0  0  0  0  0  0  0  0  0  0  0  0
    6.0221   -8.5574   27.5098 C   0  0  0  0  0  0  0  0  0  0  0  0
    5.6101  -10.0233   28.1747 C   0  0  0  0  0  0  0  0  0  0  0  0
    6.2847  -10.9793   27.9072 O   0  0  0  0  0  0  0  0  0  0  0  0
    4.4039   -9.9003   29.0545 N   0  0  0  0  0  0  0  0  0  0  0  0
    3.6987  -10.9508   29.9877 C   0  0  0  0  0  0  0  0  0  0  0  0
    2.1508  -10.9543   29.8725 C   0  0  0  0  0  0  0  0  0  0  0  0
    1.4253  -11.9193   30.8694 C   0  0  0  0  0  0  0  0  0  0  0  0
    1.8979  -13.3210   30.7765 N   0  0  0  0  0  0  0  0  0  0  0  0
    1.0932  -14.3026   31.4097 C   0  0  0  0  0  0  0  0  0  0  0  0
   -0.0477  -14.1600   32.0750 N   0  0  0  0  0  0  0  0  0  0  0  0
   -0.4500  -15.4259   32.5089 C   0  0  0  0  0  0  0  0  0  0  0  0
   -1.5779  -15.8488   33.2528 C   0  0  0  0  0  0  0  0  0  0  0  0
   -1.7962  -17.2169   33.4933 C   0  0  0  0  0  0  0  0  0  0  0  0
   -0.8675  -18.1605   33.0596 C   0  0  0  0  0  0  0  0  0  0  0  0
    0.2914  -17.7623   32.3694 C   0  0  0  0  0  0  0  0  0  0  0  0
    0.4560  -16.3888   32.0877 C   0  0  0  0  0  0  0  0  0  0  0  0
    1.3923  -15.6640   31.3682 N   0  0  0  0  0  0  0  0  0  0  0  0
    3.3774  -13.4006   30.8947 C   0  0  0  0  0  0  0  0  0  0  0  0
    4.1565  -12.4189   29.9502 C   0  0  0  0  0  0  0  0  0  0  0  0
    6.8955   -7.6031   25.0772 C   0  0  0  0  0  0  0  0  0  0  0  0
    6.4595   -8.2433   23.9254 C   0  0  0  0  0  0  0  0  0  0  0  0
    6.2471   -7.3256   22.9281 N   0  0  0  0  0  0  0  0  0  0  0  0
    6.5868   -6.0703   23.3636 C   0  0  0  0  0  0  0  0  0  0  0  0
    6.5004   -4.8406   22.6916 C   0  0  0  0  0  0  0  0  0  0  0  0
    6.9738   -3.7079   23.3522 C   0  0  0  0  0  0  0  0  0  0  0  0
    7.5402   -3.8147   24.6198 C   0  0  0  0  0  0  0  0  0  0  0  0
    7.5966   -5.0525   25.2842 C   0  0  0  0  0  0  0  0  0  0  0  0
    7.0791   -6.2137   24.6678 C   0  0  0  0  0  0  0  0  0  0  0  0
    7.5687  -10.3281   25.7456 H   0  0  0  0  0  0  0  0  0  0  0  0
    8.5119   -9.8867   27.1887 H   0  0  0  0  0  0  0  0  0  0  0  0
    8.9799   -9.2778   25.6010 H   0  0  0  0  0  0  0  0  0  0  0  0
    7.8775   -7.5489   26.9570 H   0  0  0  0  0  0  0  0  0  0  0  0
    5.1288   -8.0905   27.1058 H   0  0  0  0  0  0  0  0  0  0  0  0
    6.2829   -7.9598   28.3965 H   0  0  0  0  0  0  0  0  0  0  0  0
    4.1360   -8.9245   29.1188 H   0  0  0  0  0  0  0  0  0  0  0  0
    3.9405  -10.5653   30.9871 H   0  0  0  0  0  0  0  0  0  0  0  0
    1.7768   -9.9363   30.0359 H   0  0  0  0  0  0  0  0  0  0  0  0
    1.8534  -11.2284   28.8554 H   0  0  0  0  0  0  0  0  0  0  0  0
    1.5719  -11.5523   31.8933 H   0  0  0  0  0  0  0  0  0  0  0  0
    0.3509  -11.8740   30.6517 H   0  0  0  0  0  0  0  0  0  0  0  0
   -2.2798  -15.1135   33.6299 H   0  0  0  0  0  0  0  0  0  0  0  0
   -2.6838  -17.5308   34.0369 H   0  0  0  0  0  0  0  0  0  0  0  0
   -1.0371  -19.2151   33.2638 H   0  0  0  0  0  0  0  0  0  0  0  0
    1.0154  -18.4972   32.0437 H   0  0  0  0  0  0  0  0  0  0  0  0
    2.1641  -16.0539   30.8522 H   0  0  0  0  0  0  0  0  0  0  0  0
    3.7187  -14.4171   30.6699 H   0  0  0  0  0  0  0  0  0  0  0  0
    3.6598  -13.1839   31.9329 H   0  0  0  0  0  0  0  0  0  0  0  0
    5.2108  -12.4414   30.2404 H   0  0  0  0  0  0  0  0  0  0  0  0
    4.0902  -12.8137   28.9350 H   0  0  0  0  0  0  0  0  0  0  0  0
    6.2648   -9.2889   23.7299 H   0  0  0  0  0  0  0  0  0  0  0  0
    5.8891   -7.5371   22.0051 H   0  0  0  0  0  0  0  0  0  0  0  0
    6.0867   -4.7684   21.6901 H   0  0  0  0  0  0  0  0  0  0  0  0
    6.9096   -2.7398   22.8636 H   0  0  0  0  0  0  0  0  0  0  0  0
    7.9166   -2.9257   25.1208 H   0  0  0  0  0  0  0  0  0  0  0  0
    8.0109   -5.1056   26.2869 H   0  0  0  0  0  0  0  0  0  0  0  0
  1  2  1  0
  2  3  1  0
  3  4  1  0
  4  5  2  0
  4  6  1  0
  6  7  1  0
  7  8  1  0
  8  9  1  0
  9 10  1  0
 10 11  1  0
 11 12  2  0
 12 13  1  0
 13 14  2  0
 14 15  1  0
 15 16  2  0
 16 17  1  0
 17 18  2  0
 18 19  1  0
 10 20  1  0
 20 21  1  0
  2 22  1  0
 22 23  2  0
 23 24  1  0
 24 25  1  0
 25 26  2  0
 26 27  1  0
 27 28  2  0
 28 29  1  0
 29 30  2  0
 21  7  1  0
 30 22  1  0
 19 11  1  0
 30 25  1  0
 18 13  1  0
  1 31  1  0
  1 32  1  0
  1 33  1  0
  2 34  1  0
  3 35  1  0
  3 36  1  0
  6 37  1  0
  7 38  1  0
  8 39  1  0
  8 40  1  0
  9 41  1  0
  9 42  1  0
 14 43  1  0
 15 44  1  0
 16 45  1  0
 17 46  1  0
 19 47  1  0
 20 48  1  0
 20 49  1  0
 21 50  1  0
 21 51  1  0
 23 52  1  0
 24 53  1  0
 26 54  1  0
 27 55  1  0
 28 56  1  0
 29 57  1  0
M  END
>  <Energy>  (1493) 
22.828563959922327

>  <compound_id>  (1493) 
6848

>  <target_id>  (1493) 
1

>  <reference_id>  (1493) 
97

>  <inspiration_ids>  (1493) 
[94, 97]

>  <energy_score>  (1493) 
-15.088211410180065

>  <distance_score>  (1493) 
14.947477930404029

>  <path>  (1493) 
/opt/xchem-fragalysis-2/maxwin/BulkDock/SCRATCH/511018/C6848-P97/C6848-P97.minimised.mol

>  <scratch_subdir>  (1493) 
/opt/xchem-fragalysis-2/maxwin/BulkDock/SCRATCH/511018/C6848-P97

>  <fragmenstein_runtime>  (1493) 
45.68075180053711

>  <fragmenstein_outcome>  (1493) 
too moved

>  <fragmenstein_mode>  (1493) 
expansion

>  <fragmenstein_error>  (1493) 


$$$$
C6849-P94
     RDKit          3D

 42 46  0  0  0  0  0  0  0  0999 V2000
    9.2464   -4.8182   20.0529 C   0  0  0  0  0  0  0  0  0  0  0  0
   10.2896   -5.4106   18.8002 N   0  0  0  0  0  0  0  0  0  0  0  0
   11.2258   -4.4665   17.4305 C   0  0  0  0  0  0  0  0  0  0  0  0
   11.1002   -3.1885   16.7379 C   0  0  0  0  0  0  0  0  0  0  0  0
    9.9832   -2.9918   15.5224 C   0  0  0  0  0  0  0  0  0  0  0  0
    8.7279   -4.1722   15.2491 C   0  0  0  0  0  0  0  0  0  0  0  0
   10.4611   -4.4428   15.1101 C   0  0  0  0  0  0  0  0  0  0  0  0
   11.4701   -4.9781   16.2411 C   0  0  0  0  0  0  0  0  0  0  0  0
   10.2113   -5.1613   14.1717 N   0  0  0  0  0  0  0  0  0  0  0  0
    8.7612   -5.3941   14.3301 C   0  0  0  0  0  0  0  0  0  0  0  0
    7.8426   -5.9538   15.3881 N   0  0  0  0  0  0  0  0  0  0  0  0
    6.7450   -7.4949   14.7266 C   0  0  0  0  0  0  0  0  0  0  0  0
    6.8081   -8.1919   13.3622 C   0  0  0  0  0  0  0  0  0  0  0  0
    6.9686  -10.0165   13.1108 C   0  0  0  0  0  0  0  0  0  0  0  0
    6.0100  -10.9254   13.4623 C   0  0  0  0  0  0  0  0  0  0  0  0
    5.1534  -10.0706   14.0419 C   0  0  0  0  0  0  0  0  0  0  0  0
    5.6440   -8.2462   14.0658 C   0  0  0  0  0  0  0  0  0  0  0  0
    8.0526   -3.8771   21.2908 C   0  0  0  0  0  0  0  0  0  0  0  0
    7.1808   -2.6071   21.6206 C   0  0  0  0  0  0  0  0  0  0  0  0
    7.2334   -2.1306   22.9080 N   0  0  0  0  0  0  0  0  0  0  0  0
    7.6665   -3.0808   23.7535 C   0  0  0  0  0  0  0  0  0  0  0  0
    7.9005   -3.0021   25.1239 C   0  0  0  0  0  0  0  0  0  0  0  0
    8.0651   -4.1958   25.8165 C   0  0  0  0  0  0  0  0  0  0  0  0
    7.8786   -5.4080   25.1769 C   0  0  0  0  0  0  0  0  0  0  0  0
    7.6537   -5.4455   23.8013 C   0  0  0  0  0  0  0  0  0  0  0  0
    7.6925   -4.2580   22.9998 C   0  0  0  0  0  0  0  0  0  0  0  0
    9.9521   -5.5321   20.4990 H   0  0  0  0  0  0  0  0  0  0  0  0
   11.8587   -2.4061   16.8315 H   0  0  0  0  0  0  0  0  0  0  0  0
    9.7879   -1.9944   15.1067 H   0  0  0  0  0  0  0  0  0  0  0  0
   11.7761   -6.0110   16.1165 H   0  0  0  0  0  0  0  0  0  0  0  0
    8.4169   -5.9801   13.5406 H   0  0  0  0  0  0  0  0  0  0  0  0
    7.3219   -7.7540   12.4537 H   0  0  0  0  0  0  0  0  0  0  0  0
    7.7466  -10.3157   12.3891 H   0  0  0  0  0  0  0  0  0  0  0  0
    5.8939  -11.9337   13.1277 H   0  0  0  0  0  0  0  0  0  0  0  0
    4.1051  -10.3447   13.9223 H   0  0  0  0  0  0  0  0  0  0  0  0
    4.6751   -7.7736   13.7090 H   0  0  0  0  0  0  0  0  0  0  0  0
    6.6318   -1.8936   21.0046 H   0  0  0  0  0  0  0  0  0  0  0  0
    6.8749   -1.2312   23.2008 H   0  0  0  0  0  0  0  0  0  0  0  0
    7.9025   -2.0539   25.6525 H   0  0  0  0  0  0  0  0  0  0  0  0
    8.2345   -4.1753   26.8908 H   0  0  0  0  0  0  0  0  0  0  0  0
    7.8714   -6.3335   25.7471 H   0  0  0  0  0  0  0  0  0  0  0  0
    7.3765   -6.3939   23.3659 H   0  0  0  0  0  0  0  0  0  0  0  0
  1  2  2  3
  2  3  1  0
  3  4  2  0
  4  5  1  0
  5  6  2  0
  6  7  1  0
  7  8  2  0
  7  9  1  0
  9 10  2  0
 10 11  1  0
 11 12  1  0
 12 13  2  0
 13 14  1  0
 14 15  2  0
 15 16  1  0
 16 17  2  0
  1 18  1  0
 18 19  2  0
 19 20  1  0
 20 21  1  0
 21 22  2  0
 22 23  1  0
 23 24  2  0
 24 25  1  0
 25 26  2  0
  8  3  1  0
 17 12  1  0
 26 18  1  0
 11  6  1  0
 26 21  1  0
  1 27  1  0
  4 28  1  0
  5 29  1  0
  8 30  1  0
 10 31  1  0
 13 32  1  0
 14 33  1  0
 15 34  1  0
 16 35  1  0
 17 36  1  0
 19 37  1  0
 20 38  1  0
 22 39  1  0
 23 40  1  0
 24 41  1  0
 25 42  1  0
M  END
>  <Energy>  (1494) 
1716.5599842928721

>  <compound_id>  (1494) 
6849

>  <target_id>  (1494) 
1

>  <reference_id>  (1494) 
94

>  <inspiration_ids>  (1494) 
[94, 97]

>  <energy_score>  (1494) 
1615.853978830953

>  <distance_score>  (1494) 
18.110302728638175

>  <path>  (1494) 
/opt/xchem-fragalysis-2/maxwin/BulkDock/SCRATCH/511018/C6849-P94/C6849-P94.minimised.mol

>  <scratch_subdir>  (1494) 
/opt/xchem-fragalysis-2/maxwin/BulkDock/SCRATCH/511018/C6849-P94

>  <fragmenstein_runtime>  (1494) 
26.6454861164093

>  <fragmenstein_outcome>  (1494) 
too moved

>  <fragmenstein_mode>  (1494) 
expansion

>  <fragmenstein_error>  (1494) 


$$$$
C6849-P97
     RDKit          3D

 42 46  0  0  0  0  0  0  0  0999 V2000
    6.5760   -7.6368   14.6072 C   0  0  0  0  0  0  0  0  0  0  0  0
    5.2718   -8.4787   14.1534 N   0  0  0  0  0  0  0  0  0  0  0  0
    4.7394  -10.3085   13.7883 C   0  0  0  0  0  0  0  0  0  0  0  0
    3.3868  -10.7239   14.0787 C   0  0  0  0  0  0  0  0  0  0  0  0
    1.7758  -11.3174   13.1693 C   0  0  0  0  0  0  0  0  0  0  0  0
    1.9115  -11.4543   11.5084 C   0  0  0  0  0  0  0  0  0  0  0  0
    3.4859  -11.4543   11.0862 C   0  0  0  0  0  0  0  0  0  0  0  0
    4.7517  -11.1653   12.3328 C   0  0  0  0  0  0  0  0  0  0  0  0
    3.5630  -12.2226    9.9417 N   0  0  0  0  0  0  0  0  0  0  0  0
    2.3702  -12.7894    9.7706 C   0  0  0  0  0  0  0  0  0  0  0  0
    1.3703  -12.5115   10.7122 N   0  0  0  0  0  0  0  0  0  0  0  0
    0.2887  -13.4471   11.1588 C   0  0  0  0  0  0  0  0  0  0  0  0
    0.5079  -14.8427   11.2068 C   0  0  0  0  0  0  0  0  0  0  0  0
   -0.4755  -15.7409   11.6889 C   0  0  0  0  0  0  0  0  0  0  0  0
   -1.7262  -15.2786   12.0761 C   0  0  0  0  0  0  0  0  0  0  0  0
   -1.9764  -13.9132   11.9779 C   0  0  0  0  0  0  0  0  0  0  0  0
   -0.9614  -12.9931   11.6013 C   0  0  0  0  0  0  0  0  0  0  0  0
    7.3681   -6.0815   15.5967 C   0  0  0  0  0  0  0  0  0  0  0  0
    6.3400   -5.4392   16.1838 C   0  0  0  0  0  0  0  0  0  0  0  0
    6.1484   -3.7561   15.2613 N   0  0  0  0  0  0  0  0  0  0  0  0
    7.5436   -3.1028   15.1879 C   0  0  0  0  0  0  0  0  0  0  0  0
    7.9707   -1.7656   15.0619 C   0  0  0  0  0  0  0  0  0  0  0  0
    9.3446   -1.4446   15.1335 C   0  0  0  0  0  0  0  0  0  0  0  0
   10.3414   -2.4256   15.0952 C   0  0  0  0  0  0  0  0  0  0  0  0
    9.9836   -3.7918   15.1138 C   0  0  0  0  0  0  0  0  0  0  0  0
    8.4730   -4.3320   15.3695 C   0  0  0  0  0  0  0  0  0  0  0  0
    6.8719   -7.7831   13.5369 H   0  0  0  0  0  0  0  0  0  0  0  0
    3.6212  -11.1982   15.0739 H   0  0  0  0  0  0  0  0  0  0  0  0
    1.1526  -12.1143   13.6651 H   0  0  0  0  0  0  0  0  0  0  0  0
    5.7175  -11.5388   11.9678 H   0  0  0  0  0  0  0  0  0  0  0  0
    2.1606  -13.5036    8.9854 H   0  0  0  0  0  0  0  0  0  0  0  0
    1.4718  -15.2534   10.9085 H   0  0  0  0  0  0  0  0  0  0  0  0
   -0.2532  -16.8047   11.7279 H   0  0  0  0  0  0  0  0  0  0  0  0
   -2.4969  -15.9658   12.4095 H   0  0  0  0  0  0  0  0  0  0  0  0
   -2.9741  -13.5405   12.1989 H   0  0  0  0  0  0  0  0  0  0  0  0
   -1.1901  -11.9290   11.5890 H   0  0  0  0  0  0  0  0  0  0  0  0
    5.3998   -5.6420   16.7221 H   0  0  0  0  0  0  0  0  0  0  0  0
    5.2485   -3.2837   15.3334 H   0  0  0  0  0  0  0  0  0  0  0  0
    7.2401   -0.9805   14.9540 H   0  0  0  0  0  0  0  0  0  0  0  0
    9.6357   -0.3986   15.0467 H   0  0  0  0  0  0  0  0  0  0  0  0
   11.3855   -2.1411   15.0022 H   0  0  0  0  0  0  0  0  0  0  0  0
   10.8015   -4.4920   15.0807 H   0  0  0  0  0  0  0  0  0  0  0  0
  1  2  2  3
  2  3  1  0
  3  4  2  0
  4  5  1  0
  5  6  2  0
  6  7  1  0
  7  8  2  0
  7  9  1  0
  9 10  2  0
 10 11  1  0
 11 12  1  0
 12 13  2  0
 13 14  1  0
 14 15  2  0
 15 16  1  0
 16 17  2  0
  1 18  1  0
 18 19  2  0
 19 20  1  0
 20 21  1  0
 21 22  2  0
 22 23  1  0
 23 24  2  0
 24 25  1  0
 25 26  2  0
  8  3  1  0
 17 12  1  0
 26 18  1  0
 11  6  1  0
 26 21  1  0
  1 27  1  0
  4 28  1  0
  5 29  1  0
  8 30  1  0
 10 31  1  0
 13 32  1  0
 14 33  1  0
 15 34  1  0
 16 35  1  0
 17 36  1  0
 19 37  1  0
 20 38  1  0
 22 39  1  0
 23 40  1  0
 24 41  1  0
 25 42  1  0
M  END
>  <Energy>  (1495) 
929.97745268244012

>  <compound_id>  (1495) 
6849

>  <target_id>  (1495) 
1

>  <reference_id>  (1495) 
97

>  <inspiration_ids>  (1495) 
[94, 97]

>  <energy_score>  (1495) 
829.2714472205237

>  <distance_score>  (1495) 
16.08328996870021

>  <path>  (1495) 
/opt/xchem-fragalysis-2/maxwin/BulkDock/SCRATCH/511018/C6849-P97/C6849-P97.minimised.mol

>  <scratch_subdir>  (1495) 
/opt/xchem-fragalysis-2/maxwin/BulkDock/SCRATCH/511018/C6849-P97

>  <fragmenstein_runtime>  (1495) 
18.16560649871826

>  <fragmenstein_outcome>  (1495) 
too moved

>  <fragmenstein_mode>  (1495) 
expansion

>  <fragmenstein_error>  (1495) 


$$$$
C6850-P94
     RDKit          3D

 56 60  0  0  0  0  0  0  0  0999 V2000
    5.6738  -14.5007   15.3817 C   0  0  0  0  0  0  0  0  0  0  0  0
    6.1302  -14.5410   16.8301 C   0  0  0  0  0  0  0  0  0  0  0  0
    6.5915  -15.5706   17.2342 O   0  0  0  0  0  0  0  0  0  0  0  0
    6.0067  -13.2534   17.4642 N   0  0  0  0  0  0  0  0  0  0  0  0
    6.4878  -12.7742   18.7518 C   0  0  0  0  0  0  0  0  0  0  0  0
    8.0613  -12.7074   18.8552 C   0  0  0  0  0  0  0  0  0  0  0  0
    9.1272  -11.9802   18.0643 C   0  0  0  0  0  0  0  0  0  0  0  0
   10.3257  -11.6642   18.6987 C   0  0  0  0  0  0  0  0  0  0  0  0
   11.3055  -11.5742   17.7629 N   0  0  0  0  0  0  0  0  0  0  0  0
   10.7659  -11.5623   16.5110 C   0  0  0  0  0  0  0  0  0  0  0  0
   11.4262  -11.4521   15.2854 C   0  0  0  0  0  0  0  0  0  0  0  0
   10.6864  -11.6575   14.1273 C   0  0  0  0  0  0  0  0  0  0  0  0
    9.3485  -11.9932   14.2070 C   0  0  0  0  0  0  0  0  0  0  0  0
    8.7248  -12.1437   15.4513 C   0  0  0  0  0  0  0  0  0  0  0  0
    9.4076  -11.8654   16.6499 C   0  0  0  0  0  0  0  0  0  0  0  0
    5.6022  -12.3781   20.1188 C   0  0  0  0  0  0  0  0  0  0  0  0
    6.0184  -11.5890   20.8952 O   0  0  0  0  0  0  0  0  0  0  0  0
    4.4504  -13.1952   20.1621 N   0  0  0  0  0  0  0  0  0  0  0  0
    3.3263  -13.4482   21.3501 C   0  0  0  0  0  0  0  0  0  0  0  0
    2.1145  -14.6747   20.8405 C   0  0  0  0  0  0  0  0  0  0  0  0
    0.5568  -14.9443   22.0173 C   0  0  0  0  0  0  0  0  0  0  0  0
    0.0809  -14.2169   23.6434 C   0  0  0  0  0  0  0  0  0  0  0  0
   -1.3958  -15.0433   24.6295 N   0  0  0  0  0  0  0  0  0  0  0  0
   -2.0126  -14.3406   25.7157 C   0  0  0  0  0  0  0  0  0  0  0  0
   -2.0275  -14.8653   27.0058 N   0  0  0  0  0  0  0  0  0  0  0  0
   -2.2748  -16.1964   27.0928 C   0  0  0  0  0  0  0  0  0  0  0  0
   -2.5862  -17.0495   28.2160 C   0  0  0  0  0  0  0  0  0  0  0  0
   -2.9288  -18.3772   28.0648 C   0  0  0  0  0  0  0  0  0  0  0  0
   -2.7111  -18.8862   26.8248 C   0  0  0  0  0  0  0  0  0  0  0  0
   -2.1149  -18.0029   25.8302 C   0  0  0  0  0  0  0  0  0  0  0  0
   -2.4307  -16.4416   25.3162 C   0  0  0  0  0  0  0  0  0  0  0  0
    1.7025  -13.4085   24.1227 C   0  0  0  0  0  0  0  0  0  0  0  0
    3.0562  -13.0067   23.0335 C   0  0  0  0  0  0  0  0  0  0  0  0
    5.4039  -13.5002   15.0379 H   0  0  0  0  0  0  0  0  0  0  0  0
    6.5017  -14.8441   14.7525 H   0  0  0  0  0  0  0  0  0  0  0  0
    4.8279  -15.1799   15.2492 H   0  0  0  0  0  0  0  0  0  0  0  0
    5.4844  -12.6277   16.8491 H   0  0  0  0  0  0  0  0  0  0  0  0
    6.4948  -13.8082   19.1271 H   0  0  0  0  0  0  0  0  0  0  0  0
    8.3800  -13.7514   18.6617 H   0  0  0  0  0  0  0  0  0  0  0  0
    8.3081  -12.6104   19.9143 H   0  0  0  0  0  0  0  0  0  0  0  0
   10.6024  -11.7257   19.7414 H   0  0  0  0  0  0  0  0  0  0  0  0
   12.2973  -11.6282   17.9520 H   0  0  0  0  0  0  0  0  0  0  0  0
   12.4910  -11.2500   15.2307 H   0  0  0  0  0  0  0  0  0  0  0  0
   11.1686  -11.5872   13.1562 H   0  0  0  0  0  0  0  0  0  0  0  0
    8.7850  -12.1859   13.2976 H   0  0  0  0  0  0  0  0  0  0  0  0
    7.7220  -12.5411   15.4540 H   0  0  0  0  0  0  0  0  0  0  0  0
    4.4524  -13.8132   19.3581 H   0  0  0  0  0  0  0  0  0  0  0  0
    2.2609  -15.0325   19.8460 H   0  0  0  0  0  0  0  0  0  0  0  0
   -0.0093  -15.8781   21.6844 H   0  0  0  0  0  0  0  0  0  0  0  0
   -2.2225  -13.2927   25.5154 H   0  0  0  0  0  0  0  0  0  0  0  0
   -2.5986  -16.5857   29.1997 H   0  0  0  0  0  0  0  0  0  0  0  0
   -3.2572  -18.9821   28.9018 H   0  0  0  0  0  0  0  0  0  0  0  0
   -2.8040  -19.9518   26.6348 H   0  0  0  0  0  0  0  0  0  0  0  0
   -1.0409  -18.0608   26.1310 H   0  0  0  0  0  0  0  0  0  0  0  0
    1.7430  -13.0616   25.1544 H   0  0  0  0  0  0  0  0  0  0  0  0
    3.2774  -11.9705   22.9844 H   0  0  0  0  0  0  0  0  0  0  0  0
  1  2  1  0
  2  3  2  0
  2  4  1  0
  4  5  1  0
  5  6  1  0
  6  7  1  0
  7  8  2  0
  8  9  1  0
  9 10  1  0
 10 11  2  0
 11 12  1  0
 12 13  2  0
 13 14  1  0
 14 15  2  0
  5 16  1  0
 16 17  2  0
 16 18  1  0
 18 19  1  0
 19 20  2  0
 20 21  1  0
 21 22  2  0
 22 23  1  0
 23 24  1  0
 24 25  2  0
 25 26  1  0
 26 27  2  0
 27 28  1  0
 28 29  2  0
 29 30  1  0
 30 31  2  0
 22 32  1  0
 32 33  2  0
 15  7  1  0
 33 19  1  0
 15 10  1  0
 31 23  1  0
 31 26  1  0
  1 34  1  0
  1 35  1  0
  1 36  1  0
  4 37  1  0
  5 38  1  0
  6 39  1  0
  6 40  1  0
  8 41  1  0
  9 42  1  0
 11 43  1  0
 12 44  1  0
 13 45  1  0
 14 46  1  0
 18 47  1  0
 20 48  1  0
 21 49  1  0
 24 50  1  0
 27 51  1  0
 28 52  1  0
 29 53  1  0
 30 54  1  0
 32 55  1  0
 33 56  1  0
M  END
>  <Energy>  (1496) 
922.76189187368107

>  <compound_id>  (1496) 
6850

>  <target_id>  (1496) 
1

>  <reference_id>  (1496) 
94

>  <inspiration_ids>  (1496) 
[94, 97]

>  <energy_score>  (1496) 
797.827152250317

>  <distance_score>  (1496) 
13.712562266461285

>  <path>  (1496) 
/opt/xchem-fragalysis-2/maxwin/BulkDock/SCRATCH/511018/C6850-P94/C6850-P94.minimised.mol

>  <scratch_subdir>  (1496) 
/opt/xchem-fragalysis-2/maxwin/BulkDock/SCRATCH/511018/C6850-P94

>  <fragmenstein_runtime>  (1496) 
67.65563726425171

>  <fragmenstein_outcome>  (1496) 
too moved

>  <fragmenstein_mode>  (1496) 
expansion

>  <fragmenstein_error>  (1496) 


$$$$
C6850-P97
     RDKit          3D

 56 60  0  0  0  0  0  0  0  0999 V2000
   10.8706   -6.3452   15.3669 C   0  0  0  0  0  0  0  0  0  0  0  0
    9.1140   -7.3940   15.5377 C   0  0  0  0  0  0  0  0  0  0  0  0
    9.3860   -8.6520   15.5190 O   0  0  0  0  0  0  0  0  0  0  0  0
    7.2869   -6.4886   15.9001 N   0  0  0  0  0  0  0  0  0  0  0  0
    5.3904   -7.2782   16.5049 C   0  0  0  0  0  0  0  0  0  0  0  0
    4.9645   -5.5287   16.8944 C   0  0  0  0  0  0  0  0  0  0  0  0
    3.9189   -4.1561   16.4777 C   0  0  0  0  0  0  0  0  0  0  0  0
    2.7498   -3.8684   17.1683 C   0  0  0  0  0  0  0  0  0  0  0  0
    2.0962   -2.8282   16.5787 N   0  0  0  0  0  0  0  0  0  0  0  0
    2.8226   -2.3215   15.5404 C   0  0  0  0  0  0  0  0  0  0  0  0
    2.4885   -1.3040   14.6380 C   0  0  0  0  0  0  0  0  0  0  0  0
    3.4114   -0.9621   13.6536 C   0  0  0  0  0  0  0  0  0  0  0  0
    4.6709   -1.5250   13.6560 C   0  0  0  0  0  0  0  0  0  0  0  0
    5.0119   -2.4500   14.6362 C   0  0  0  0  0  0  0  0  0  0  0  0
    4.0338   -3.0057   15.5202 C   0  0  0  0  0  0  0  0  0  0  0  0
    3.5424   -7.4291   17.7027 C   0  0  0  0  0  0  0  0  0  0  0  0
    3.2558   -6.3565   18.1072 O   0  0  0  0  0  0  0  0  0  0  0  0
    2.3058   -8.7840   18.4620 N   0  0  0  0  0  0  0  0  0  0  0  0
    0.8265   -8.6786   19.8345 C   0  0  0  0  0  0  0  0  0  0  0  0
    0.9661   -9.6558   21.2166 C   0  0  0  0  0  0  0  0  0  0  0  0
    0.5111  -11.1475   22.3734 C   0  0  0  0  0  0  0  0  0  0  0  0
   -0.4106  -12.4644   22.7244 C   0  0  0  0  0  0  0  0  0  0  0  0
   -0.9361  -13.6931   24.3522 N   0  0  0  0  0  0  0  0  0  0  0  0
   -2.2305  -13.3206   25.4836 C   0  0  0  0  0  0  0  0  0  0  0  0
   -2.3849  -14.2879   26.2998 N   0  0  0  0  0  0  0  0  0  0  0  0
   -1.6545  -13.6794   27.1156 C   0  0  0  0  0  0  0  0  0  0  0  0
   -1.6323  -13.6926   28.5109 C   0  0  0  0  0  0  0  0  0  0  0  0
   -0.6003  -13.0169   29.1099 C   0  0  0  0  0  0  0  0  0  0  0  0
    0.3460  -12.4002   28.3042 C   0  0  0  0  0  0  0  0  0  0  0  0
    0.3060  -12.4613   26.8887 C   0  0  0  0  0  0  0  0  0  0  0  0
   -0.7309  -13.0957   26.1688 C   0  0  0  0  0  0  0  0  0  0  0  0
   -1.0866  -11.0247   21.6804 C   0  0  0  0  0  0  0  0  0  0  0  0
   -0.5677   -9.5056   20.6492 C   0  0  0  0  0  0  0  0  0  0  0  0
   11.1399   -5.7642   16.3350 H   0  0  0  0  0  0  0  0  0  0  0  0
   11.7789   -6.8427   15.7917 H   0  0  0  0  0  0  0  0  0  0  0  0
   10.7152   -5.3105   14.7990 H   0  0  0  0  0  0  0  0  0  0  0  0
    7.3858   -5.4913   15.9345 H   0  0  0  0  0  0  0  0  0  0  0  0
    5.0193   -7.5013   15.4951 H   0  0  0  0  0  0  0  0  0  0  0  0
    5.0947   -5.4556   17.9757 H   0  0  0  0  0  0  0  0  0  0  0  0
    4.0351   -5.9113   16.4258 H   0  0  0  0  0  0  0  0  0  0  0  0
    2.2865   -4.3524   18.0174 H   0  0  0  0  0  0  0  0  0  0  0  0
    1.1872   -2.4910   16.8617 H   0  0  0  0  0  0  0  0  0  0  0  0
    1.5148   -0.8245   14.6699 H   0  0  0  0  0  0  0  0  0  0  0  0
    3.1462   -0.2264   12.8989 H   0  0  0  0  0  0  0  0  0  0  0  0
    5.4083   -1.2394   12.9101 H   0  0  0  0  0  0  0  0  0  0  0  0
    6.0357   -2.8084   14.6205 H   0  0  0  0  0  0  0  0  0  0  0  0
    2.6323   -9.7037   18.1634 H   0  0  0  0  0  0  0  0  0  0  0  0
    1.6478   -8.9897   21.7815 H   0  0  0  0  0  0  0  0  0  0  0  0
    1.4074  -11.5544   22.9722 H   0  0  0  0  0  0  0  0  0  0  0  0
   -2.7890  -12.3896   25.3570 H   0  0  0  0  0  0  0  0  0  0  0  0
   -2.3918  -14.2181   29.0755 H   0  0  0  0  0  0  0  0  0  0  0  0
   -0.5234  -12.9718   30.1914 H   0  0  0  0  0  0  0  0  0  0  0  0
    1.1669  -11.8668   28.7796 H   0  0  0  0  0  0  0  0  0  0  0  0
    1.0586  -11.9921   26.3163 H   0  0  0  0  0  0  0  0  0  0  0  0
   -2.1571  -11.1376   21.3806 H   0  0  0  0  0  0  0  0  0  0  0  0
   -1.5063   -9.0613   20.2406 H   0  0  0  0  0  0  0  0  0  0  0  0
  1  2  1  0
  2  3  2  0
  2  4  1  0
  4  5  1  0
  5  6  1  0
  6  7  1  0
  7  8  2  0
  8  9  1  0
  9 10  1  0
 10 11  2  0
 11 12  1  0
 12 13  2  0
 13 14  1  0
 14 15  2  0
  5 16  1  0
 16 17  2  0
 16 18  1  0
 18 19  1  0
 19 20  2  0
 20 21  1  0
 21 22  2  0
 22 23  1  0
 23 24  1  0
 24 25  2  0
 25 26  1  0
 26 27  2  0
 27 28  1  0
 28 29  2  0
 29 30  1  0
 30 31  2  0
 22 32  1  0
 32 33  2  0
 15  7  1  0
 33 19  1  0
 15 10  1  0
 31 23  1  0
 31 26  1  0
  1 34  1  0
  1 35  1  0
  1 36  1  0
  4 37  1  0
  5 38  1  0
  6 39  1  0
  6 40  1  0
  8 41  1  0
  9 42  1  0
 11 43  1  0
 12 44  1  0
 13 45  1  0
 14 46  1  0
 18 47  1  0
 20 48  1  0
 21 49  1  0
 24 50  1  0
 27 51  1  0
 28 52  1  0
 29 53  1  0
 30 54  1  0
 32 55  1  0
 33 56  1  0
M  END
