ver_1.2
     RDKit          3D

 20 21  0  0  0  0  0  0  0  0999 V2000
    4.1334    0.2484    1.6615 C   0  0  0  0  0  0  0  0  0  0  0  0
    4.0754    0.6866    0.2248 C   0  0  0  0  0  0  0  0  0  0  0  0
    3.6443   -0.4354   -0.6763 C   0  0  0  0  0  0  0  0  0  0  0  0
    2.3437   -0.9127   -0.3160 N   0  0  0  0  0  0  0  0  0  0  0  0
    1.1693   -0.1187   -0.3139 C   0  0  0  0  0  0  0  0  0  0  0  0
    1.2907    1.0877   -0.6540 O   0  0  0  0  0  0  0  0  0  0  0  0
   -0.1248   -0.7008    0.0728 C   0  0  0  0  0  0  0  0  0  0  0  0
   -0.2495   -2.1132    0.4681 C   0  0  0  0  0  0  0  0  0  0  0  0
   -1.9865   -2.2435    0.8153 S   0  0  0  0  0  0  0  0  0  0  0  0
   -2.3401   -0.4829    0.4143 C   0  0  0  0  0  0  0  0  0  0  0  0
   -3.6472    0.0732    0.5029 N   0  0  0  0  0  0  0  0  0  0  0  0
   -3.9053    1.4618    0.1829 C   0  0  0  0  0  0  0  0  0  0  0  0
   -5.2943    1.4853   -0.4434 C   0  0  0  0  0  0  0  0  0  0  0  0
   -5.6133    0.2122   -1.1617 C   0  0  0  0  0  0  0  0  0  0  0  0
   -5.6517   -0.9955   -0.2816 C   0  0  0  0  0  0  0  0  0  0  0  0
   -4.7625   -0.7378    0.9178 C   0  0  0  0  0  0  0  0  0  0  0  0
   -1.2487   -0.0879    0.1135 N   0  0  0  0  0  0  0  0  0  0  0  0
    5.6267    1.3616   -0.2542 S   0  0  0  0  0  0  0  0  0  0  0  0
    6.9703    0.2305   -0.1121 C   0  0  0  0  0  0  0  0  0  0  0  0
    5.5699    1.9810   -1.8116 O   0  0  0  0  0  0  0  0  0  0  0  0
  1  2  1  0
  2  3  1  0
  3  4  1  0
  4  5  1  0
  5  6  2  0
  5  7  1  0
  7  8  2  0
  8  9  1  0
  9 10  1  0
 10 11  1  0
 11 12  1  0
 12 13  1  0
 13 14  1  0
 14 15  1  0
 15 16  1  0
 10 17  2  0
  2 18  1  0
 18 19  1  0
 18 20  1  0
 17  7  1  0
 16 11  1  0
M  CHG  2  18   1  20  -1
M  END
>  <ref_url>  (1) 
https://github.com/mwinokan/BulkDock

>  <submitter_name>  (1) 
Max Winokan

>  <submitter_email>  (1) 
max.winokan@diamond.ac.uk

>  <submitter_institution>  (1) 
DLS

>  <generation_date>  (1) 
2025-08-28

>  <method>  (1) 
openbind_d68ev3c_c1_knitwork_pure

>  <Energy>  (1) 
Energy

>  <scratch_subdir>  (1) 
scratch_subdir

>  <fragmenstein_runtime>  (1) 
fragmenstein_runtime

>  <fragmenstein_outcome>  (1) 
fragmenstein_outcome

>  <fragmenstein_mode>  (1) 
fragmenstein_mode

>  <fragmenstein_error>  (1) 
fragmenstein_error

>  <HIPPO Pose ID>  (1) 
HIPPO Pose ID

>  <HIPPO Compound ID>  (1) 
HIPPO Compound ID

>  <smiles>  (1) 
smiles

>  <ref_pdb>  (1) 
protein reference

>  <ref_mols>  (1) 
fragment inspirations

>  <original ID>  (1) 
alias

>  <compound inchikey>  (1) 
compound inchikey

>  <distance_score>  (1) 
distance_score

>  <energy_score>  (1) 
energy_score

>  <subsites>  (1) 
subsites

$$$$
CN([C@H]1CCNC1)S(=O)(=O)CCc1ccncc1
     RDKit          3D

 18 19  0  0  0  0  0  0  0  0999 V2000
    3.2025   -4.1080   34.6753 C   0  0  0  0  0  0  0  0  0  0  0  0
    2.1122   -3.8191   35.6156 N   0  0  0  0  0  0  0  0  0  0  0  0
    2.5455   -3.6509   37.0364 C   0  0  1  0  0  0  0  0  0  0  0  0
    1.8880   -2.4913   37.7690 C   0  0  0  0  0  0  0  0  0  0  0  0
    0.8964   -3.1237   38.7434 C   0  0  0  0  0  0  0  0  0  0  0  0
    0.9524   -4.5718   38.5382 N   0  0  0  0  0  0  0  0  0  0  0  0
    2.2552   -4.8510   37.9370 C   0  0  0  0  0  0  0  0  0  0  0  0
    0.5177   -3.8847   35.0799 S   0  0  0  0  0  0  0  0  0  0  0  0
   -0.2860   -3.0466   35.9421 O   0  0  0  0  0  0  0  0  0  0  0  0
    0.5220   -3.6731   33.6410 O   0  0  0  0  0  0  0  0  0  0  0  0
   -0.0097   -5.5495   35.4039 C   0  0  0  0  0  0  0  0  0  0  0  0
    0.7302   -6.6102   34.6234 C   0  0  0  0  0  0  0  0  0  0  0  0
    0.0259   -6.9634   33.3471 C   0  0  0  0  0  0  0  0  0  0  0  0
    0.4903   -6.5504   32.1046 C   0  0  0  0  0  0  0  0  0  0  0  0
   -0.2080   -6.9448   30.9737 C   0  0  0  0  0  0  0  0  0  0  0  0
   -1.3111   -7.7219   30.9884 N   0  0  0  0  0  0  0  0  0  0  0  0
   -1.7523   -8.0707   32.2089 C   0  0  0  0  0  0  0  0  0  0  0  0
   -1.1455   -7.7075   33.3948 C   0  0  0  0  0  0  0  0  0  0  0  0
  1  2  1  0
  3  2  1  6
  3  4  1  0
  4  5  1  0
  5  6  1  0
  6  7  1  0
  2  8  1  0
  8  9  2  0
  8 10  2  0
  8 11  1  0
 11 12  1  0
 12 13  1  0
 13 14  2  0
 14 15  1  0
 15 16  2  0
 16 17  1  0
 17 18  2  0
  7  3  1  0
 18 13  1  0
M  END
>  <HIPPO Compound ID>  (1) 
27587

>  <fragmenstein_outcome>  (1) 
acceptable

>  <smiles>  (1) 
C35712-P13

>  <HIPPO Pose ID>  (1) 
2710

>  <fragmenstein_runtime>  (1) 
14.735145

>  <ref_pdb>  (1) 
107

>  <Energy>  (1) 
-9.816936

>  <scratch_subdir>  (1) 
/opt/xchem-fragalysis-2/maxwin/BulkDock/SCRATCH/511013/C35712-P13

>  <inchikey>  (1) 
OWTVZZFAFKORNP-UHFFFAOYSA-N

>  <fragmenstein_error>  (1) 


>  <tags>  (1) 
{'fragmenstein_placed', 'openbind_d68ev3c_c1_knitwork_pure'}

>  <alias>  (1) 
CN([C@H]1CCNC1)S(=O)(=O)CCc1ccncc1

>  <fragmenstein_mode>  (1) 
expansion

$$$$
CC(C)(C)c1[nH]ncc1S(=O)(=O)NC[C@H](O)c1cncs1
     RDKit          3D

 21 22  0  0  0  0  0  0  0  0999 V2000
  -13.3320  -21.2835   34.3086 C   0  0  0  0  0  0  0  0  0  0  0  0
  -13.9898  -22.3417   33.3966 C   0  0  0  0  0  0  0  0  0  0  0  0
  -14.7300  -21.5903   32.2861 C   0  0  0  0  0  0  0  0  0  0  0  0
  -15.1144  -23.0562   34.1819 C   0  0  0  0  0  0  0  0  0  0  0  0
  -12.8510  -23.3009   32.9734 C   0  0  0  0  0  0  0  0  0  0  0  0
  -12.2680  -24.1059   33.9350 N   0  0  0  0  0  0  0  0  0  0  0  0
  -11.2197  -24.8346   33.5197 N   0  0  0  0  0  0  0  0  0  0  0  0
  -11.1833  -24.5961   32.2166 C   0  0  0  0  0  0  0  0  0  0  0  0
  -12.1413  -23.6432   31.8208 C   0  0  0  0  0  0  0  0  0  0  0  0
  -12.2191  -23.1232   30.2021 S   0  0  0  0  0  0  0  0  0  0  0  0
  -13.5833  -23.1848   29.7555 O   0  0  0  0  0  0  0  0  0  0  0  0
  -11.4614  -21.8930   30.1539 O   0  0  0  0  0  0  0  0  0  0  0  0
  -11.4009  -24.2155   29.2089 N   0  0  0  0  0  0  0  0  0  0  0  0
  -11.6771  -23.9685   27.7794 C   0  0  0  0  0  0  0  0  0  0  0  0
  -11.4871  -25.2379   26.9579 C   0  0  2  0  0  0  0  0  0  0  0  0
  -11.5522  -24.8999   25.5767 O   0  0  0  0  0  0  0  0  0  0  0  0
  -12.5029  -26.3023   27.2417 C   0  0  0  0  0  0  0  0  0  0  0  0
  -12.5103  -27.2183   28.2787 C   0  0  0  0  0  0  0  0  0  0  0  0
  -13.5429  -28.1381   28.2756 N   0  0  0  0  0  0  0  0  0  0  0  0
  -14.3194  -27.9040   27.2401 C   0  0  0  0  0  0  0  0  0  0  0  0
  -13.9077  -26.5463   26.2789 S   0  0  0  0  0  0  0  0  0  0  0  0
  1  2  1  0
  2  3  1  0
  2  4  1  0
  2  5  1  0
  5  6  1  0
  6  7  1  0
  7  8  2  0
  8  9  1  0
  9 10  1  0
 10 11  2  0
 10 12  2  0
 10 13  1  0
 13 14  1  0
 14 15  1  0
 15 16  1  6
 15 17  1  0
 17 18  2  0
 18 19  1  0
 19 20  2  0
 20 21  1  0
  9  5  2  0
 21 17  1  0
M  END
>  <HIPPO Compound ID>  (2) 
38140

>  <fragmenstein_outcome>  (2) 
acceptable

>  <smiles>  (2) 
C33313-P123

>  <HIPPO Pose ID>  (2) 
6076

>  <fragmenstein_runtime>  (2) 
4.593124

>  <ref_pdb>  (2) 
107

>  <Energy>  (2) 
12.50207

>  <scratch_subdir>  (2) 
/opt/xchem-fragalysis-2/maxwin/BulkDock/SCRATCH/511013/C33313-P123

>  <inchikey>  (2) 
RWUKOLGDMALOQO-UHFFFAOYSA-N

>  <fragmenstein_error>  (2) 


>  <tags>  (2) 
{'fragmenstein_placed', 'openbind_d68ev3c_c1_knitwork_pure'}

>  <alias>  (2) 
CC(C)(C)c1[nH]ncc1S(=O)(=O)NC[C@H](O)c1cncs1

>  <fragmenstein_mode>  (2) 
expansion

$$$$
c1cn(CCNc2ccn3ccnc3n2)cn1
     RDKit          3D

 17 19  0  0  0  0  0  0  0  0999 V2000
  -14.6717  -27.5370   27.4179 C   0  0  0  0  0  0  0  0  0  0  0  0
  -14.5465  -26.4089   26.6420 C   0  0  0  0  0  0  0  0  0  0  0  0
  -13.1979  -26.2316   26.4957 N   0  0  0  0  0  0  0  0  0  0  0  0
  -12.5631  -25.2938   25.6187 C   0  0  0  0  0  0  0  0  0  0  0  0
  -11.3620  -24.5497   26.1708 C   0  0  0  0  0  0  0  0  0  0  0  0
  -11.7045  -23.5954   27.1899 N   0  0  0  0  0  0  0  0  0  0  0  0
  -11.4651  -23.6623   28.5373 C   0  0  0  0  0  0  0  0  0  0  0  0
  -10.6680  -24.7901   29.1518 C   0  0  0  0  0  0  0  0  0  0  0  0
  -10.5776  -24.8039   30.4877 C   0  0  0  0  0  0  0  0  0  0  0  0
  -11.1969  -23.7963   31.2062 N   0  0  0  0  0  0  0  0  0  0  0  0
  -11.3439  -23.6479   32.5543 C   0  0  0  0  0  0  0  0  0  0  0  0
  -12.0829  -22.5006   32.7091 C   0  0  0  0  0  0  0  0  0  0  0  0
  -12.3257  -21.9025   31.5007 N   0  0  0  0  0  0  0  0  0  0  0  0
  -11.8468  -22.7304   30.5930 C   0  0  0  0  0  0  0  0  0  0  0  0
  -11.9737  -22.6737   29.2352 N   0  0  0  0  0  0  0  0  0  0  0  0
  -12.5601  -27.2429   27.1397 C   0  0  0  0  0  0  0  0  0  0  0  0
  -13.4221  -28.0449   27.7317 N   0  0  0  0  0  0  0  0  0  0  0  0
  1  2  2  0
  2  3  1  0
  3  4  1  0
  4  5  1  0
  5  6  1  0
  6  7  1  0
  7  8  1  0
  8  9  2  0
  9 10  1  0
 10 11  1  0
 11 12  2  0
 12 13  1  0
 13 14  2  0
 14 15  1  0
  3 16  1  0
 16 17  2  0
 17  1  1  0
 15  7  2  0
 14 10  1  0
M  END
>  <HIPPO Compound ID>  (3) 
13421

>  <fragmenstein_outcome>  (3) 
acceptable

>  <smiles>  (3) 
C8689-P64

>  <HIPPO Pose ID>  (3) 
7439

>  <fragmenstein_runtime>  (3) 
1.497458

>  <ref_pdb>  (3) 
107

>  <Energy>  (3) 
2.483162

>  <scratch_subdir>  (3) 
/opt/xchem-fragalysis-2/maxwin/BulkDock/SCRATCH/511013/C8689-P64

>  <inchikey>  (3) 
HHHNVBZJLAYLQA-UHFFFAOYSA-N

>  <fragmenstein_error>  (3) 


>  <tags>  (3) 
{'fragmenstein_placed', 'openbind_d68ev3c_c1_knitwork_pure'}

>  <alias>  (3) 
c1cn(CCNc2ccn3ccnc3n2)cn1

>  <fragmenstein_mode>  (3) 
expansion

$$$$
O=S(=O)(Nc1cnoc1)c1cnc[nH]1
     RDKit          3D

 14 15  0  0  0  0  0  0  0  0999 V2000
   16.0035   -5.2830   16.4929 O   0  0  0  0  0  0  0  0  0  0  0  0
   15.5097   -3.9245   16.5713 S   0  0  0  0  0  0  0  0  0  0  0  0
   15.7901   -3.0389   17.6765 O   0  0  0  0  0  0  0  0  0  0  0  0
   13.8587   -3.9856   16.3067 N   0  0  0  0  0  0  0  0  0  0  0  0
   13.0765   -2.8986   15.9153 C   0  0  0  0  0  0  0  0  0  0  0  0
   11.7393   -2.9531   15.4713 C   0  0  0  0  0  0  0  0  0  0  0  0
   11.2539   -1.7472   15.1667 N   0  0  0  0  0  0  0  0  0  0  0  0
   12.3028   -0.8705   15.3747 O   0  0  0  0  0  0  0  0  0  0  0  0
   13.3736   -1.5598   15.8403 C   0  0  0  0  0  0  0  0  0  0  0  0
   16.2741   -3.1639   15.1860 C   0  0  0  0  0  0  0  0  0  0  0  0
   16.7693   -1.9014   14.9328 C   0  0  0  0  0  0  0  0  0  0  0  0
   17.2740   -1.8060   13.6606 N   0  0  0  0  0  0  0  0  0  0  0  0
   17.1395   -3.0074   13.1502 C   0  0  0  0  0  0  0  0  0  0  0  0
   16.5561   -3.8630   14.0375 N   0  0  0  0  0  0  0  0  0  0  0  0
  1  2  2  0
  2  3  2  0
  2  4  1  0
  4  5  1  0
  5  6  1  0
  6  7  2  0
  7  8  1  0
  8  9  1  0
  2 10  1  0
 10 11  2  0
 11 12  1  0
 12 13  2  0
 13 14  1  0
  9  5  2  0
 14 10  1  0
M  END
>  <HIPPO Compound ID>  (4) 
12434

>  <fragmenstein_outcome>  (4) 
acceptable

>  <smiles>  (4) 
C27068-P59

>  <HIPPO Pose ID>  (4) 
8146

>  <fragmenstein_runtime>  (4) 
0.801153

>  <ref_pdb>  (4) 
107

>  <Energy>  (4) 
-68.989307

>  <scratch_subdir>  (4) 
/opt/xchem-fragalysis-2/maxwin/BulkDock/SCRATCH/511013/C27068-P59

>  <inchikey>  (4) 
MLRDTHRNFDTJJY-UHFFFAOYSA-N

>  <fragmenstein_error>  (4) 


>  <tags>  (4) 
{'fragmenstein_placed', 'openbind_d68ev3c_c1_knitwork_pure'}

>  <alias>  (4) 
O=S(=O)(Nc1cnoc1)c1cnc[nH]1

>  <fragmenstein_mode>  (4) 
expansion

$$$$
CS(=O)(=O)C[C@H](O)c1nc(C2CC2)cs1
     RDKit          3D

 15 16  0  0  0  0  0  0  0  0999 V2000
   13.5983    1.9136   11.5957 C   0  0  0  0  0  0  0  0  0  0  0  0
   14.9554    1.7266   12.7247 S   0  0  0  0  0  0  0  0  0  0  0  0
   15.0004    2.9026   13.5695 O   0  0  0  0  0  0  0  0  0  0  0  0
   16.1153    1.3681   11.9264 O   0  0  0  0  0  0  0  0  0  0  0  0
   14.5552    0.3055   13.7122 C   0  0  0  0  0  0  0  0  0  0  0  0
   13.1408    0.3184   14.2721 C   0  0  2  0  0  0  0  0  0  0  0  0
   12.9607    1.4321   15.1466 O   0  0  0  0  0  0  0  0  0  0  0  0
   12.9387   -0.9008   15.1217 C   0  0  0  0  0  0  0  0  0  0  0  0
   13.6113   -1.0504   16.2390 N   0  0  0  0  0  0  0  0  0  0  0  0
   13.3912   -2.3054   16.7389 C   0  0  0  0  0  0  0  0  0  0  0  0
   14.1940   -2.7966   17.9667 C   0  0  0  0  0  0  0  0  0  0  0  0
   15.6510   -3.1239   17.7765 C   0  0  0  0  0  0  0  0  0  0  0  0
   15.2563   -1.8925   18.5419 C   0  0  0  0  0  0  0  0  0  0  0  0
   12.4651   -3.0710   16.0699 C   0  0  0  0  0  0  0  0  0  0  0  0
   11.8974   -2.1941   14.7080 S   0  0  0  0  0  0  0  0  0  0  0  0
  1  2  1  0
  2  3  2  0
  2  4  2  0
  2  5  1  0
  5  6  1  0
  6  7  1  1
  6  8  1  0
  8  9  2  0
  9 10  1  0
 10 11  1  0
 11 12  1  0
 12 13  1  0
 10 14  2  0
 14 15  1  0
 15  8  1  0
 13 11  1  0
M  END
>  <HIPPO Compound ID>  (5) 
29828

>  <fragmenstein_outcome>  (5) 
acceptable

>  <smiles>  (5) 
C37360-P71

>  <HIPPO Pose ID>  (5) 
8399

>  <fragmenstein_runtime>  (5) 
2.595808

>  <ref_pdb>  (5) 
107

>  <Energy>  (5) 
9.481259

>  <scratch_subdir>  (5) 
/opt/xchem-fragalysis-2/maxwin/BulkDock/SCRATCH/511013/C37360-P71

>  <inchikey>  (5) 
XWKCECDBYULGHF-UHFFFAOYSA-N

>  <fragmenstein_error>  (5) 


>  <tags>  (5) 
{'fragmenstein_placed', 'openbind_d68ev3c_c1_knitwork_pure'}

>  <alias>  (5) 
CS(=O)(=O)C[C@H](O)c1nc(C2CC2)cs1

>  <fragmenstein_mode>  (5) 
expansion

$$$$
C1CO[C@@H](CCC2CCNCC2)C1
     RDKit          3D

 13 14  0  0  0  0  0  0  0  0999 V2000
  -11.0133  -29.4270   10.6562 C   0  0  0  0  0  0  0  0  0  0  0  0
  -12.4729  -29.2360   11.0116 C   0  0  0  0  0  0  0  0  0  0  0  0
  -12.8138  -27.8718   10.7038 O   0  0  0  0  0  0  0  0  0  0  0  0
  -11.6251  -27.1966   10.2501 C   0  0  1  0  0  0  0  0  0  0  0  0
  -11.6690  -25.6825   10.5573 C   0  0  0  0  0  0  0  0  0  0  0  0
  -10.8825  -25.1730   11.7710 C   0  0  0  0  0  0  0  0  0  0  0  0
  -11.5610  -25.2610   13.1567 C   0  0  0  0  0  0  0  0  0  0  0  0
  -12.6924  -26.2809   13.2976 C   0  0  0  0  0  0  0  0  0  0  0  0
  -13.1995  -26.3449   14.7355 C   0  0  0  0  0  0  0  0  0  0  0  0
  -12.1590  -26.6416   15.7221 N   0  0  0  0  0  0  0  0  0  0  0  0
  -10.8081  -26.6580   15.1703 C   0  0  0  0  0  0  0  0  0  0  0  0
  -10.5121  -25.4573   14.2719 C   0  0  0  0  0  0  0  0  0  0  0  0
  -10.4658  -28.0224   10.7844 C   0  0  0  0  0  0  0  0  0  0  0  0
  1  2  1  0
  2  3  1  0
  3  4  1  0
  4  5  1  1
  5  6  1  0
  6  7  1  0
  7  8  1  0
  8  9  1  0
  9 10  1  0
 10 11  1  0
 11 12  1  0
  4 13  1  0
 13  1  1  0
 12  7  1  0
M  END
>  <HIPPO Compound ID>  (6) 
36757

>  <fragmenstein_outcome>  (6) 
acceptable

>  <smiles>  (6) 
C41997-P28

>  <HIPPO Pose ID>  (6) 
11024

>  <fragmenstein_runtime>  (6) 
5.289238

>  <ref_pdb>  (6) 
107

>  <Energy>  (6) 
30.202745

>  <scratch_subdir>  (6) 
/opt/xchem-fragalysis-2/maxwin/BulkDock/SCRATCH/511013/C41997-P28

>  <inchikey>  (6) 
ZXFRWGYHBMNIKG-UHFFFAOYSA-N

>  <fragmenstein_error>  (6) 


>  <tags>  (6) 
{'fragmenstein_placed', 'openbind_d68ev3c_c1_knitwork_pure'}

>  <alias>  (6) 
C1CO[C@@H](CCC2CCNCC2)C1

>  <fragmenstein_mode>  (6) 
expansion

$$$$
CC[C@]1(CNC2CCNCC2)CCCO1
     RDKit          3D

 15 16  0  0  0  0  0  0  0  0999 V2000
  -11.2539  -26.5357    7.6088 C   0  0  0  0  0  0  0  0  0  0  0  0
  -12.2711  -27.0420    8.6217 C   0  0  0  0  0  0  0  0  0  0  0  0
  -11.8303  -27.0136   10.1155 C   0  0  2  0  0  0  0  0  0  0  0  0
  -11.8549  -25.5266   10.6404 C   0  0  0  0  0  0  0  0  0  0  0  0
  -11.0129  -25.2038   11.8004 N   0  0  0  0  0  0  0  0  0  0  0  0
  -11.6422  -25.2848   13.1304 C   0  0  0  0  0  0  0  0  0  0  0  0
  -12.7289  -26.3390   13.3463 C   0  0  0  0  0  0  0  0  0  0  0  0
  -13.1662  -26.3720   14.8070 C   0  0  0  0  0  0  0  0  0  0  0  0
  -12.0713  -26.5949   15.7525 N   0  0  0  0  0  0  0  0  0  0  0  0
  -10.7522  -26.6205   15.1264 C   0  0  0  0  0  0  0  0  0  0  0  0
  -10.5166  -25.4501   14.1724 C   0  0  0  0  0  0  0  0  0  0  0  0
  -10.5234  -27.7696   10.3801 C   0  0  0  0  0  0  0  0  0  0  0  0
  -10.9618  -29.2182   10.3713 C   0  0  0  0  0  0  0  0  0  0  0  0
  -12.3361  -29.1439   10.9983 C   0  0  0  0  0  0  0  0  0  0  0  0
  -12.8405  -27.8105   10.7946 O   0  0  0  0  0  0  0  0  0  0  0  0
  1  2  1  0
  3  2  1  6
  3  4  1  0
  4  5  1  0
  5  6  1  0
  6  7  1  0
  7  8  1  0
  8  9  1  0
  9 10  1  0
 10 11  1  0
  3 12  1  0
 12 13  1  0
 13 14  1  0
 14 15  1  0
 15  3  1  0
 11  6  1  0
M  END
>  <HIPPO Compound ID>  (7) 
10168

>  <fragmenstein_outcome>  (7) 
acceptable

>  <smiles>  (7) 
C42001-P28

>  <HIPPO Pose ID>  (7) 
11027

>  <fragmenstein_runtime>  (7) 
4.344686

>  <ref_pdb>  (7) 
107

>  <Energy>  (7) 
51.29433

>  <scratch_subdir>  (7) 
/opt/xchem-fragalysis-2/maxwin/BulkDock/SCRATCH/511013/C42001-P28

>  <inchikey>  (7) 
NTSCIJOQEQIATB-UHFFFAOYSA-N

>  <fragmenstein_error>  (7) 


>  <tags>  (7) 
{'fragmenstein_placed', 'openbind_d68ev3c_c1_knitwork_pure'}

>  <alias>  (7) 
CC[C@]1(CNC2CCNCC2)CCCO1

>  <fragmenstein_mode>  (7) 
expansion

$$$$
C[C@@H]1CCO[C@H]1CCC1CCNCC1
     RDKit          3D

 14 15  0  0  0  0  0  0  0  0999 V2000
   -9.0570  -27.6050   10.0366 C   0  0  0  0  0  0  0  0  0  0  0  0
  -10.3227  -27.8850   10.8282 C   0  0  2  0  0  0  0  0  0  0  0  0
  -10.7955  -29.3263   10.7181 C   0  0  0  0  0  0  0  0  0  0  0  0
  -12.2498  -29.2194   11.1253 C   0  0  0  0  0  0  0  0  0  0  0  0
  -12.6835  -27.8842   10.8136 O   0  0  0  0  0  0  0  0  0  0  0  0
  -11.5517  -27.1360   10.3240 C   0  0  1  0  0  0  0  0  0  0  0  0
  -11.6933  -25.6289   10.6304 C   0  0  0  0  0  0  0  0  0  0  0  0
  -10.9556  -25.0389   11.8408 C   0  0  0  0  0  0  0  0  0  0  0  0
  -11.5336  -25.2746   13.2558 C   0  0  0  0  0  0  0  0  0  0  0  0
  -12.7546  -26.1851   13.3647 C   0  0  0  0  0  0  0  0  0  0  0  0
  -13.2790  -26.2626   14.8011 C   0  0  0  0  0  0  0  0  0  0  0  0
  -12.2345  -26.3247   15.8252 N   0  0  0  0  0  0  0  0  0  0  0  0
  -10.9429  -26.7335   15.2907 C   0  0  0  0  0  0  0  0  0  0  0  0
  -10.4378  -25.7383   14.2422 C   0  0  0  0  0  0  0  0  0  0  0  0
  2  1  1  6
  2  3  1  0
  3  4  1  0
  4  5  1  0
  5  6  1  0
  6  7  1  1
  7  8  1  0
  8  9  1  0
  9 10  1  0
 10 11  1  0
 11 12  1  0
 12 13  1  0
 13 14  1  0
  6  2  1  0
 14  9  1  0
M  END
>  <HIPPO Compound ID>  (8) 
6030

>  <fragmenstein_outcome>  (8) 
acceptable

>  <smiles>  (8) 
C42004-P28

>  <HIPPO Pose ID>  (8) 
11031

>  <fragmenstein_runtime>  (8) 
4.251225

>  <ref_pdb>  (8) 
107

>  <Energy>  (8) 
34.119245

>  <scratch_subdir>  (8) 
/opt/xchem-fragalysis-2/maxwin/BulkDock/SCRATCH/511013/C42004-P28

>  <inchikey>  (8) 
VRJHLGYSHOFCDM-UHFFFAOYSA-N

>  <fragmenstein_error>  (8) 


>  <tags>  (8) 
{'fragmenstein_placed', 'openbind_d68ev3c_c1_knitwork_pure'}

>  <alias>  (8) 
C[C@@H]1CCO[C@H]1CCC1CCNCC1

>  <fragmenstein_mode>  (8) 
expansion

$$$$
CC[C@@H]1C[C@H](NC2CCNCC2)CO1
     RDKit          3D

 14 15  0  0  0  0  0  0  0  0999 V2000
  -12.9630  -29.7441   10.1378 C   0  0  0  0  0  0  0  0  0  0  0  0
  -12.0139  -29.0342   11.0798 C   0  0  0  0  0  0  0  0  0  0  0  0
  -11.1411  -27.9988   10.3539 C   0  0  2  0  0  0  0  0  0  0  0  0
  -10.4024  -27.1082   11.3469 C   0  0  0  0  0  0  0  0  0  0  0  0
  -10.8025  -25.6949   10.9674 C   0  0  2  0  0  0  0  0  0  0  0  0
  -10.8630  -24.6550   11.9934 N   0  0  0  0  0  0  0  0  0  0  0  0
  -11.4773  -24.9603   13.3019 C   0  0  0  0  0  0  0  0  0  0  0  0
  -12.8204  -25.6944   13.2876 C   0  0  0  0  0  0  0  0  0  0  0  0
  -13.3671  -25.9639   14.6912 C   0  0  0  0  0  0  0  0  0  0  0  0
  -12.3585  -26.2280   15.7156 N   0  0  0  0  0  0  0  0  0  0  0  0
  -11.0854  -26.6703   15.1702 C   0  0  0  0  0  0  0  0  0  0  0  0
  -10.4673  -25.5950   14.2780 C   0  0  0  0  0  0  0  0  0  0  0  0
  -12.0553  -25.8704   10.1166 C   0  0  0  0  0  0  0  0  0  0  0  0
  -11.9511  -27.1632    9.5169 O   0  0  0  0  0  0  0  0  0  0  0  0
  1  2  1  0
  3  2  1  1
  3  4  1  0
  4  5  1  0
  5  6  1  1
  6  7  1  0
  7  8  1  0
  8  9  1  0
  9 10  1  0
 10 11  1  0
 11 12  1  0
  5 13  1  0
 13 14  1  0
 14  3  1  0
 12  7  1  0
M  END
>  <HIPPO Compound ID>  (9) 
15003

>  <fragmenstein_outcome>  (9) 
acceptable

>  <smiles>  (9) 
C42005-P28

>  <HIPPO Pose ID>  (9) 
11032

>  <fragmenstein_runtime>  (9) 
6.206925

>  <ref_pdb>  (9) 
107

>  <Energy>  (9) 
41.762998

>  <scratch_subdir>  (9) 
/opt/xchem-fragalysis-2/maxwin/BulkDock/SCRATCH/511013/C42005-P28

>  <inchikey>  (9) 
JVTFMYWHXPNHQI-UHFFFAOYSA-N

>  <fragmenstein_error>  (9) 


>  <tags>  (9) 
{'fragmenstein_placed', 'openbind_d68ev3c_c1_knitwork_pure'}

>  <alias>  (9) 
CC[C@@H]1C[C@H](NC2CCNCC2)CO1

>  <fragmenstein_mode>  (9) 
expansion

$$$$
CC[C@@H]1OCC[C@H]1CNC1CCNCC1
     RDKit          3D

 15 16  0  0  0  0  0  0  0  0999 V2000
   -9.5558  -26.6095    7.7262 C   0  0  0  0  0  0  0  0  0  0  0  0
   -9.9964  -27.9469    8.2977 C   0  0  0  0  0  0  0  0  0  0  0  0
  -10.5258  -27.8426    9.7291 C   0  0  2  0  0  0  0  0  0  0  0  0
  -10.7829  -29.1884   10.2045 O   0  0  0  0  0  0  0  0  0  0  0  0
  -11.8829  -29.0982   11.1115 C   0  0  0  0  0  0  0  0  0  0  0  0
  -12.8003  -28.0893   10.4672 C   0  0  0  0  0  0  0  0  0  0  0  0
  -11.8523  -27.0622    9.8603 C   0  0  1  0  0  0  0  0  0  0  0  0
  -11.7519  -25.7198   10.6291 C   0  0  0  0  0  0  0  0  0  0  0  0
  -10.9874  -25.8002   11.8658 N   0  0  0  0  0  0  0  0  0  0  0  0
  -11.6655  -25.3667   13.0927 C   0  0  0  0  0  0  0  0  0  0  0  0
  -12.9459  -26.1723   13.3622 C   0  0  0  0  0  0  0  0  0  0  0  0
  -13.3600  -26.1248   14.8240 C   0  0  0  0  0  0  0  0  0  0  0  0
  -12.3348  -26.6356   15.7320 N   0  0  0  0  0  0  0  0  0  0  0  0
  -10.9908  -26.6930   15.1584 C   0  0  0  0  0  0  0  0  0  0  0  0
  -10.6767  -25.4973   14.2668 C   0  0  0  0  0  0  0  0  0  0  0  0
  1  2  1  0
  3  2  1  6
  3  4  1  0
  4  5  1  0
  5  6  1  0
  6  7  1  0
  7  8  1  1
  8  9  1  0
  9 10  1  0
 10 11  1  0
 11 12  1  0
 12 13  1  0
 13 14  1  0
 14 15  1  0
  7  3  1  0
 15 10  1  0
M  END
>  <HIPPO Compound ID>  (10) 
28354

>  <fragmenstein_outcome>  (10) 
acceptable

>  <smiles>  (10) 
C42008-P28

>  <HIPPO Pose ID>  (10) 
11036

>  <fragmenstein_runtime>  (10) 
3.989337

>  <ref_pdb>  (10) 
107

>  <Energy>  (10) 
24.826121

>  <scratch_subdir>  (10) 
/opt/xchem-fragalysis-2/maxwin/BulkDock/SCRATCH/511013/C42008-P28

>  <inchikey>  (10) 
KQVLYLSRXSWQAR-UHFFFAOYSA-N

>  <fragmenstein_error>  (10) 


>  <tags>  (10) 
{'fragmenstein_placed', 'openbind_d68ev3c_c1_knitwork_pure'}

>  <alias>  (10) 
CC[C@@H]1OCC[C@H]1CNC1CCNCC1

>  <fragmenstein_mode>  (10) 
expansion

$$$$
C(COC1CCNCC1)C[C@@H]1CCOC1
     RDKit          3D

 15 16  0  0  0  0  0  0  0  0999 V2000
  -12.6658  -25.7837   10.0859 C   0  0  0  0  0  0  0  0  0  0  0  0
  -12.0790  -24.6983   10.9914 C   0  0  0  0  0  0  0  0  0  0  0  0
  -11.1502  -25.1993   11.9372 O   0  0  0  0  0  0  0  0  0  0  0  0
  -11.6231  -25.2307   13.2912 C   0  0  0  0  0  0  0  0  0  0  0  0
  -12.8258  -26.1563   13.4677 C   0  0  0  0  0  0  0  0  0  0  0  0
  -13.2226  -26.3105   14.9317 C   0  0  0  0  0  0  0  0  0  0  0  0
  -12.0950  -26.3594   15.8599 N   0  0  0  0  0  0  0  0  0  0  0  0
  -10.8435  -26.7294   15.2089 C   0  0  0  0  0  0  0  0  0  0  0  0
  -10.4479  -25.6850   14.1678 C   0  0  0  0  0  0  0  0  0  0  0  0
  -11.6466  -26.7951    9.5439 C   0  0  0  0  0  0  0  0  0  0  0  0
  -11.3930  -27.9760   10.4813 C   0  0  2  0  0  0  0  0  0  0  0  0
  -10.4017  -28.9933    9.9527 C   0  0  0  0  0  0  0  0  0  0  0  0
  -10.7024  -30.1982   10.8264 C   0  0  0  0  0  0  0  0  0  0  0  0
  -12.0834  -30.1093   11.2104 O   0  0  0  0  0  0  0  0  0  0  0  0
  -12.6023  -28.8695   10.7105 C   0  0  0  0  0  0  0  0  0  0  0  0
  1  2  1  0
  2  3  1  0
  3  4  1  0
  4  5  1  0
  5  6  1  0
  6  7  1  0
  7  8  1  0
  8  9  1  0
  1 10  1  0
 11 10  1  6
 11 12  1  0
 12 13  1  0
 13 14  1  0
 14 15  1  0
  9  4  1  0
 15 11  1  0
M  END
>  <HIPPO Compound ID>  (11) 
14644

>  <fragmenstein_outcome>  (11) 
acceptable

>  <smiles>  (11) 
C42026-P28

>  <HIPPO Pose ID>  (11) 
11049

>  <fragmenstein_runtime>  (11) 
7.207131

>  <ref_pdb>  (11) 
107

>  <Energy>  (11) 
23.720543

>  <scratch_subdir>  (11) 
/opt/xchem-fragalysis-2/maxwin/BulkDock/SCRATCH/511013/C42026-P28

>  <inchikey>  (11) 
TWMJAZPBFWPAAN-UHFFFAOYSA-N

>  <fragmenstein_error>  (11) 


>  <tags>  (11) 
{'fragmenstein_placed', 'openbind_d68ev3c_c1_knitwork_pure'}

>  <alias>  (11) 
C(COC1CCNCC1)C[C@@H]1CCOC1

>  <fragmenstein_mode>  (11) 
expansion

$$$$
CN(C)CCN1CCN(Cc2cn[nH]c2)CC1=O
     RDKit          3D

 18 19  0  0  0  0  0  0  0  0999 V2000
   -4.0121   -0.5009    6.8511 C   0  0  0  0  0  0  0  0  0  0  0  0
   -5.1731   -1.2818    7.2455 N   0  0  0  0  0  0  0  0  0  0  0  0
   -5.3152   -2.4566    6.3830 C   0  0  0  0  0  0  0  0  0  0  0  0
   -6.3941   -0.4524    7.2298 C   0  0  0  0  0  0  0  0  0  0  0  0
   -7.4946   -1.0959    8.0778 C   0  0  0  0  0  0  0  0  0  0  0  0
   -8.7237   -0.3330    8.1760 N   0  0  0  0  0  0  0  0  0  0  0  0
   -8.7897    0.7853    9.1015 C   0  0  0  0  0  0  0  0  0  0  0  0
  -10.2299    1.1481    9.4745 C   0  0  0  0  0  0  0  0  0  0  0  0
  -11.0052    1.3901    8.2544 N   0  0  0  0  0  0  0  0  0  0  0  0
  -12.3353    1.9574    8.5136 C   0  0  0  0  0  0  0  0  0  0  0  0
  -13.2718    1.0514    9.2366 C   0  0  0  0  0  0  0  0  0  0  0  0
  -13.5237    0.9708   10.6283 C   0  0  0  0  0  0  0  0  0  0  0  0
  -14.4267    0.0371   10.9399 N   0  0  0  0  0  0  0  0  0  0  0  0
  -14.7327   -0.5062    9.7495 N   0  0  0  0  0  0  0  0  0  0  0  0
  -14.1237    0.1094    8.6984 C   0  0  0  0  0  0  0  0  0  0  0  0
  -11.0309    0.1707    7.4105 C   0  0  0  0  0  0  0  0  0  0  0  0
   -9.6261   -0.3958    7.1236 C   0  0  0  0  0  0  0  0  0  0  0  0
   -9.3359   -0.9581    6.0656 O   0  0  0  0  0  0  0  0  0  0  0  0
  1  2  1  0
  2  3  1  0
  2  4  1  0
  4  5  1  0
  5  6  1  0
  6  7  1  0
  7  8  1  0
  8  9  1  0
  9 10  1  0
 10 11  1  0
 11 12  1  0
 12 13  2  0
 13 14  1  0
 14 15  1  0
  9 16  1  0
 16 17  1  0
 17 18  2  0
 17  6  1  0
 15 11  2  0
M  END
>  <HIPPO Compound ID>  (12) 
39995

>  <fragmenstein_outcome>  (12) 
acceptable

>  <smiles>  (12) 
C43469-P24

>  <HIPPO Pose ID>  (12) 
12455

>  <fragmenstein_runtime>  (12) 
1.80019

>  <ref_pdb>  (12) 
107

>  <Energy>  (12) 
94.580948

>  <scratch_subdir>  (12) 
/opt/xchem-fragalysis-2/maxwin/BulkDock/SCRATCH/511013/C43469-P24

>  <inchikey>  (12) 
IMUHSIQXGFCQLZ-UHFFFAOYSA-N

>  <fragmenstein_error>  (12) 


>  <tags>  (12) 
{'fragmenstein_placed', 'openbind_d68ev3c_c1_knitwork_pure'}

>  <alias>  (12) 
CN(C)CCN1CCN(Cc2cn[nH]c2)CC1=O

>  <fragmenstein_mode>  (12) 
expansion

$$$$
Cn1c([C@H](O)CS(C)(=O)=O)cnc1Cl
     RDKit          3D

 14 14  0  0  0  0  0  0  0  0999 V2000
   11.6470   -1.2913   14.7145 C   0  0  0  0  0  0  0  0  0  0  0  0
   12.8546   -1.5505   15.4635 N   0  0  0  0  0  0  0  0  0  0  0  0
   13.9889   -0.7731   15.5683 C   0  0  0  0  0  0  0  0  0  0  0  0
   14.2517    0.5228   14.8977 C   0  0  2  0  0  0  0  0  0  0  0  0
   13.1918    1.3802   15.2982 O   0  0  0  0  0  0  0  0  0  0  0  0
   14.3161    0.3744   13.3919 C   0  0  0  0  0  0  0  0  0  0  0  0
   14.9936    1.8482   12.6693 S   0  0  0  0  0  0  0  0  0  0  0  0
   14.2081    1.8872   11.0789 C   0  0  0  0  0  0  0  0  0  0  0  0
   14.5050    2.9877   13.4248 O   0  0  0  0  0  0  0  0  0  0  0  0
   16.4124    1.6441   12.4619 O   0  0  0  0  0  0  0  0  0  0  0  0
   14.8160   -1.4775   16.4253 C   0  0  0  0  0  0  0  0  0  0  0  0
   14.2536   -2.6572   16.8072 N   0  0  0  0  0  0  0  0  0  0  0  0
   13.0980   -2.6713   16.2018 C   0  0  0  0  0  0  0  0  0  0  0  0
   11.9785   -3.9239   16.2506 Cl  0  0  0  0  0  0  0  0  0  0  0  0
  1  2  1  0
  2  3  1  0
  3  4  1  0
  4  5  1  6
  4  6  1  0
  6  7  1  0
  7  8  1  0
  7  9  2  0
  7 10  2  0
  3 11  2  0
 11 12  1  0
 12 13  2  0
 13 14  1  0
 13  2  1  0
M  END
>  <HIPPO Compound ID>  (13) 
24602

>  <fragmenstein_outcome>  (13) 
acceptable

>  <smiles>  (13) 
C32971-P114

>  <HIPPO Pose ID>  (13) 
12769

>  <fragmenstein_runtime>  (13) 
1.72044

>  <ref_pdb>  (13) 
107

>  <Energy>  (13) 
-14.424732

>  <scratch_subdir>  (13) 
/opt/xchem-fragalysis-2/maxwin/BulkDock/SCRATCH/511013/C32971-P114

>  <inchikey>  (13) 
BACMMQHXHKLNBI-UHFFFAOYSA-N

>  <fragmenstein_error>  (13) 


>  <tags>  (13) 
{'fragmenstein_placed', 'openbind_d68ev3c_c1_knitwork_pure'}

>  <alias>  (13) 
Cn1c([C@H](O)CS(C)(=O)=O)cnc1Cl

>  <fragmenstein_mode>  (13) 
expansion

$$$$
Cc1ncc([C@@H](O)CS(C)(=O)=O)n1C
     RDKit          3D

 14 14  0  0  0  0  0  0  0  0999 V2000
   12.3718   -4.0077   16.3988 C   0  0  0  0  0  0  0  0  0  0  0  0
   13.0757   -2.7208   16.2744 C   0  0  0  0  0  0  0  0  0  0  0  0
   14.1571   -2.4069   16.9518 N   0  0  0  0  0  0  0  0  0  0  0  0
   14.5406   -1.1884   16.4937 C   0  0  0  0  0  0  0  0  0  0  0  0
   13.6787   -0.7275   15.5183 C   0  0  0  0  0  0  0  0  0  0  0  0
   13.7629    0.5248   14.7199 C   0  0  1  0  0  0  0  0  0  0  0  0
   13.7592    1.5719   15.6772 O   0  0  0  0  0  0  0  0  0  0  0  0
   15.0560    0.5576   13.9212 C   0  0  0  0  0  0  0  0  0  0  0  0
   15.0805    1.8345   12.6835 S   0  0  0  0  0  0  0  0  0  0  0  0
   13.8144    1.3598   11.5339 C   0  0  0  0  0  0  0  0  0  0  0  0
   14.6829    3.0996   13.2654 O   0  0  0  0  0  0  0  0  0  0  0  0
   16.3411    1.7165   11.9724 O   0  0  0  0  0  0  0  0  0  0  0  0
   12.7078   -1.6978   15.4299 N   0  0  0  0  0  0  0  0  0  0  0  0
   11.5209   -1.6892   14.6099 C   0  0  0  0  0  0  0  0  0  0  0  0
  1  2  1  0
  2  3  2  0
  3  4  1  0
  4  5  2  0
  5  6  1  0
  6  7  1  1
  6  8  1  0
  8  9  1  0
  9 10  1  0
  9 11  2  0
  9 12  2  0
  5 13  1  0
 13 14  1  0
 13  2  1  0
M  END
>  <HIPPO Compound ID>  (14) 
28548

>  <fragmenstein_outcome>  (14) 
acceptable

>  <smiles>  (14) 
C32975-P114

>  <HIPPO Pose ID>  (14) 
12770

>  <fragmenstein_runtime>  (14) 
1.511627

>  <ref_pdb>  (14) 
107

>  <Energy>  (14) 
-6.546273

>  <scratch_subdir>  (14) 
/opt/xchem-fragalysis-2/maxwin/BulkDock/SCRATCH/511013/C32975-P114

>  <inchikey>  (14) 
YLDNMDNNLFJXHA-UHFFFAOYSA-N

>  <fragmenstein_error>  (14) 


>  <tags>  (14) 
{'fragmenstein_placed', 'openbind_d68ev3c_c1_knitwork_pure'}

>  <alias>  (14) 
Cc1ncc([C@@H](O)CS(C)(=O)=O)n1C

>  <fragmenstein_mode>  (14) 
expansion

$$$$
O=C(O)[C@H](CN1CCCC1)c1c[nH]c2ccccc12
     RDKit          3D

 19 21  0  0  0  0  0  0  0  0999 V2000
   18.3178   -2.8646   14.8625 O   0  0  0  0  0  0  0  0  0  0  0  0
   17.7461   -2.7446   15.9371 C   0  0  0  0  0  0  0  0  0  0  0  0
   18.1641   -3.4788   16.9898 O   0  0  0  0  0  0  0  0  0  0  0  0
   16.5952   -1.8018   16.2275 C   0  0  2  0  0  0  0  0  0  0  0  0
   16.9824   -0.8491   17.3731 C   0  0  0  0  0  0  0  0  0  0  0  0
   16.0347    0.2696   17.5471 N   0  0  0  0  0  0  0  0  0  0  0  0
   16.2930    1.0147   18.7759 C   0  0  0  0  0  0  0  0  0  0  0  0
   15.4936    2.2888   18.5732 C   0  0  0  0  0  0  0  0  0  0  0  0
   15.4740    2.5086   17.0670 C   0  0  0  0  0  0  0  0  0  0  0  0
   16.1101    1.2610   16.4701 C   0  0  0  0  0  0  0  0  0  0  0  0
   15.3143   -2.5323   16.5233 C   0  0  0  0  0  0  0  0  0  0  0  0
   15.0902   -3.4011   17.5804 C   0  0  0  0  0  0  0  0  0  0  0  0
   13.7877   -3.7968   17.5414 N   0  0  0  0  0  0  0  0  0  0  0  0
   13.1711   -3.2598   16.4446 C   0  0  0  0  0  0  0  0  0  0  0  0
   11.8763   -3.4567   15.9801 C   0  0  0  0  0  0  0  0  0  0  0  0
   11.4445   -2.6827   14.9099 C   0  0  0  0  0  0  0  0  0  0  0  0
   12.2963   -1.7730   14.2986 C   0  0  0  0  0  0  0  0  0  0  0  0
   13.6204   -1.6374   14.7277 C   0  0  0  0  0  0  0  0  0  0  0  0
   14.0732   -2.4008   15.8243 C   0  0  0  0  0  0  0  0  0  0  0  0
  1  2  2  0
  2  3  1  0
  2  4  1  0
  4  5  1  1
  5  6  1  0
  6  7  1  0
  7  8  1  0
  8  9  1  0
  9 10  1  0
  4 11  1  0
 11 12  2  0
 12 13  1  0
 13 14  1  0
 14 15  2  0
 15 16  1  0
 16 17  2  0
 17 18  1  0
 18 19  2  0
 10  6  1  0
 19 11  1  0
 19 14  1  0
M  END
>  <HIPPO Compound ID>  (15) 
40157

>  <fragmenstein_outcome>  (15) 
acceptable

>  <smiles>  (15) 
C22101-P124

>  <HIPPO Pose ID>  (15) 
13425

>  <fragmenstein_runtime>  (15) 
5.770594

>  <ref_pdb>  (15) 
107

>  <Energy>  (15) 
41.254585

>  <scratch_subdir>  (15) 
/opt/xchem-fragalysis-2/maxwin/BulkDock/SCRATCH/511013/C22101-P124

>  <inchikey>  (15) 
SGTXZOGNTFYLPW-UHFFFAOYSA-N

>  <fragmenstein_error>  (15) 


>  <tags>  (15) 
{'fragmenstein_placed', 'openbind_d68ev3c_c1_knitwork_pure'}

>  <alias>  (15) 
O=C(O)[C@H](CN1CCCC1)c1c[nH]c2ccccc12

>  <fragmenstein_mode>  (15) 
expansion

$$$$
Cc1cc(C(=O)N[C@H](C)CNC(=O)c2ccccn2)c2nccn2c1
     RDKit          3D

 25 27  0  0  0  0  0  0  0  0999 V2000
   -7.4208  -29.4968   25.9733 C   0  0  0  0  0  0  0  0  0  0  0  0
   -7.1785  -28.1667   26.5766 C   0  0  0  0  0  0  0  0  0  0  0  0
   -8.3962  -27.4296   26.8665 C   0  0  0  0  0  0  0  0  0  0  0  0
   -8.3315  -26.1143   27.1330 C   0  0  0  0  0  0  0  0  0  0  0  0
   -9.4142  -25.3439   26.5279 C   0  0  0  0  0  0  0  0  0  0  0  0
   -9.2394  -24.8513   25.4990 O   0  0  0  0  0  0  0  0  0  0  0  0
  -10.6571  -25.4244   27.3743 N   0  0  0  0  0  0  0  0  0  0  0  0
  -11.9402  -24.8378   27.1917 C   0  0  2  0  0  0  0  0  0  0  0  0
  -12.3281  -25.0118   25.7125 C   0  0  0  0  0  0  0  0  0  0  0  0
  -11.8555  -23.3521   27.5472 C   0  0  0  0  0  0  0  0  0  0  0  0
  -11.6506  -23.0545   28.9378 N   0  0  0  0  0  0  0  0  0  0  0  0
  -11.0672  -23.9104   30.0615 C   0  0  0  0  0  0  0  0  0  0  0  0
  -10.5856  -24.9700   30.0315 O   0  0  0  0  0  0  0  0  0  0  0  0
  -11.2324  -23.2045   31.3841 C   0  0  0  0  0  0  0  0  0  0  0  0
  -10.7899  -23.8513   32.5332 C   0  0  0  0  0  0  0  0  0  0  0  0
  -11.3546  -23.4492   33.7275 C   0  0  0  0  0  0  0  0  0  0  0  0
  -12.1336  -22.3094   33.7773 C   0  0  0  0  0  0  0  0  0  0  0  0
  -12.4450  -21.6920   32.5967 C   0  0  0  0  0  0  0  0  0  0  0  0
  -12.0355  -22.1046   31.3813 N   0  0  0  0  0  0  0  0  0  0  0  0
   -7.0992  -25.4622   27.3115 C   0  0  0  0  0  0  0  0  0  0  0  0
   -6.8190  -24.2524   27.7422 N   0  0  0  0  0  0  0  0  0  0  0  0
   -5.4610  -24.1913   27.7126 C   0  0  0  0  0  0  0  0  0  0  0  0
   -4.9061  -25.3611   27.2457 C   0  0  0  0  0  0  0  0  0  0  0  0
   -5.9615  -26.2037   27.0361 N   0  0  0  0  0  0  0  0  0  0  0  0
   -5.9862  -27.5460   26.6705 C   0  0  0  0  0  0  0  0  0  0  0  0
  1  2  1  0
  2  3  1  0
  3  4  2  0
  4  5  1  0
  5  6  2  0
  5  7  1  0
  7  8  1  0
  8  9  1  6
  8 10  1  0
 10 11  1  0
 11 12  1  0
 12 13  2  0
 12 14  1  0
 14 15  2  0
 15 16  1  0
 16 17  2  0
 17 18  1  0
 18 19  2  0
  4 20  1  0
 20 21  2  0
 21 22  1  0
 22 23  2  0
 23 24  1  0
 24 25  1  0
 25  2  2  0
 19 14  1  0
 24 20  1  0
M  END
>  <HIPPO Compound ID>  (16) 
25561

>  <fragmenstein_outcome>  (16) 
acceptable

>  <smiles>  (16) 
C32050-P45

>  <HIPPO Pose ID>  (16) 
14269

>  <fragmenstein_runtime>  (16) 
4.627432

>  <ref_pdb>  (16) 
107

>  <Energy>  (16) 
113.372653

>  <scratch_subdir>  (16) 
/opt/xchem-fragalysis-2/maxwin/BulkDock/SCRATCH/511013/C32050-P45

>  <inchikey>  (16) 
AXSSNRVOLIIDNT-UHFFFAOYSA-N

>  <fragmenstein_error>  (16) 


>  <tags>  (16) 
{'fragmenstein_placed', 'openbind_d68ev3c_c1_knitwork_pure'}

>  <alias>  (16) 
Cc1cc(C(=O)N[C@H](C)CNC(=O)c2ccccn2)c2nccn2c1

>  <fragmenstein_mode>  (16) 
expansion

$$$$
CN(c1cccnc1)S(=O)(=O)CCN1CCOC1=O
     RDKit          3D

 19 20  0  0  0  0  0  0  0  0999 V2000
   -1.1382   -3.0180   29.3183 C   0  0  0  0  0  0  0  0  0  0  0  0
   -0.2516   -1.8819   29.6488 N   0  0  0  0  0  0  0  0  0  0  0  0
   -0.3594   -0.6839   28.8123 C   0  0  0  0  0  0  0  0  0  0  0  0
   -1.4260   -0.5318   27.9142 C   0  0  0  0  0  0  0  0  0  0  0  0
   -1.6308    0.6667   27.2269 C   0  0  0  0  0  0  0  0  0  0  0  0
   -0.7546    1.7076   27.4468 C   0  0  0  0  0  0  0  0  0  0  0  0
    0.2897    1.6206   28.2908 N   0  0  0  0  0  0  0  0  0  0  0  0
    0.4415    0.4485   28.9665 C   0  0  0  0  0  0  0  0  0  0  0  0
    1.2519   -2.3622   30.3013 S   0  0  0  0  0  0  0  0  0  0  0  0
    1.0378   -3.5573   31.0950 O   0  0  0  0  0  0  0  0  0  0  0  0
    1.9394   -1.2342   30.8905 O   0  0  0  0  0  0  0  0  0  0  0  0
    2.1152   -2.8288   28.8240 C   0  0  0  0  0  0  0  0  0  0  0  0
    3.2955   -3.7164   29.1646 C   0  0  0  0  0  0  0  0  0  0  0  0
    4.2368   -3.7974   28.0644 N   0  0  0  0  0  0  0  0  0  0  0  0
    5.2781   -2.8274   27.9158 C   0  0  0  0  0  0  0  0  0  0  0  0
    5.8521   -3.1908   26.5761 C   0  0  0  0  0  0  0  0  0  0  0  0
    4.7808   -3.8506   25.8897 O   0  0  0  0  0  0  0  0  0  0  0  0
    3.8717   -4.2600   26.8172 C   0  0  0  0  0  0  0  0  0  0  0  0
    2.8482   -4.8680   26.5408 O   0  0  0  0  0  0  0  0  0  0  0  0
  1  2  1  0
  2  3  1  0
  3  4  2  0
  4  5  1  0
  5  6  2  0
  6  7  1  0
  7  8  2  0
  2  9  1  0
  9 10  2  0
  9 11  2  0
  9 12  1  0
 12 13  1  0
 13 14  1  0
 14 15  1  0
 15 16  1  0
 16 17  1  0
 17 18  1  0
 18 19  2  0
  8  3  1  0
 18 14  1  0
M  END
>  <HIPPO Compound ID>  (17) 
12064

>  <fragmenstein_outcome>  (17) 
acceptable

>  <smiles>  (17) 
C22778-P13

>  <HIPPO Pose ID>  (17) 
18096

>  <fragmenstein_runtime>  (17) 
3.91611

>  <ref_pdb>  (17) 
64

>  <Energy>  (17) 
-41.401142

>  <scratch_subdir>  (17) 
/opt/xchem-fragalysis-2/maxwin/BulkDock/SCRATCH/511014/C22778-P13

>  <inchikey>  (17) 
HHQSLAHJPDLFCQ-UHFFFAOYSA-N

>  <fragmenstein_error>  (17) 


>  <tags>  (17) 
{'fragmenstein_placed', 'openbind_d68ev3c_c1_knitwork_pure'}

>  <alias>  (17) 
CN(c1cccnc1)S(=O)(=O)CCN1CCOC1=O

>  <fragmenstein_mode>  (17) 
expansion

$$$$
CN(c1cccnc1)S(=O)(=O)CCn1ccnc1
     RDKit          3D

 18 19  0  0  0  0  0  0  0  0999 V2000
   -0.9159   -2.8719   29.4468 C   0  0  0  0  0  0  0  0  0  0  0  0
    0.1712   -2.0498   28.8510 N   0  0  0  0  0  0  0  0  0  0  0  0
   -0.2210   -0.7040   28.4608 C   0  0  0  0  0  0  0  0  0  0  0  0
    0.3846    0.4636   28.9239 C   0  0  0  0  0  0  0  0  0  0  0  0
   -0.0557    1.7135   28.4777 C   0  0  0  0  0  0  0  0  0  0  0  0
   -1.1280    1.7714   27.6064 C   0  0  0  0  0  0  0  0  0  0  0  0
   -1.7623    0.6770   27.1542 N   0  0  0  0  0  0  0  0  0  0  0  0
   -1.2961   -0.5232   27.5853 C   0  0  0  0  0  0  0  0  0  0  0  0
    1.6758   -2.3624   29.5619 S   0  0  0  0  0  0  0  0  0  0  0  0
    1.8358   -3.8031   29.6297 O   0  0  0  0  0  0  0  0  0  0  0  0
    1.7889   -1.5759   30.7735 O   0  0  0  0  0  0  0  0  0  0  0  0
    2.8700   -1.7689   28.3727 C   0  0  0  0  0  0  0  0  0  0  0  0
    4.2601   -1.9872   28.9443 C   0  0  0  0  0  0  0  0  0  0  0  0
    5.2765   -1.2829   28.1928 N   0  0  0  0  0  0  0  0  0  0  0  0
    6.0424   -1.7902   27.1861 C   0  0  0  0  0  0  0  0  0  0  0  0
    6.8888   -0.7627   26.8373 C   0  0  0  0  0  0  0  0  0  0  0  0
    6.6434    0.3516   27.5973 N   0  0  0  0  0  0  0  0  0  0  0  0
    5.6736    0.0056   28.4119 C   0  0  0  0  0  0  0  0  0  0  0  0
  1  2  1  0
  2  3  1  0
  3  4  2  0
  4  5  1  0
  5  6  2  0
  6  7  1  0
  7  8  2  0
  2  9  1  0
  9 10  2  0
  9 11  2  0
  9 12  1  0
 12 13  1  0
 13 14  1  0
 14 15  1  0
 15 16  2  0
 16 17  1  0
 17 18  2  0
  8  3  1  0
 18 14  1  0
M  END
>  <HIPPO Compound ID>  (18) 
28736

>  <fragmenstein_outcome>  (18) 
acceptable

>  <smiles>  (18) 
C22786-P13

>  <HIPPO Pose ID>  (18) 
18098

>  <fragmenstein_runtime>  (18) 
3.931362

>  <ref_pdb>  (18) 
64

>  <Energy>  (18) 
-25.351941

>  <scratch_subdir>  (18) 
/opt/xchem-fragalysis-2/maxwin/BulkDock/SCRATCH/511014/C22786-P13

>  <inchikey>  (18) 
YPCGPPLGVNMWRB-UHFFFAOYSA-N

>  <fragmenstein_error>  (18) 


>  <tags>  (18) 
{'fragmenstein_placed', 'openbind_d68ev3c_c1_knitwork_pure'}

>  <alias>  (18) 
CN(c1cccnc1)S(=O)(=O)CCn1ccnc1

>  <fragmenstein_mode>  (18) 
expansion

$$$$
CN(c1cccnc1)S(=O)(=O)CCC1CCCC1
     RDKit          3D

 18 19  0  0  0  0  0  0  0  0999 V2000
   -0.5744   -3.0729   29.4945 C   0  0  0  0  0  0  0  0  0  0  0  0
    0.4868   -2.1372   29.0398 N   0  0  0  0  0  0  0  0  0  0  0  0
   -0.0131   -0.8306   28.5960 C   0  0  0  0  0  0  0  0  0  0  0  0
   -1.1564   -0.7705   27.7904 C   0  0  0  0  0  0  0  0  0  0  0  0
   -1.6564    0.4528   27.3380 C   0  0  0  0  0  0  0  0  0  0  0  0
   -1.0000    1.6086   27.7054 C   0  0  0  0  0  0  0  0  0  0  0  0
    0.1023    1.6106   28.4775 N   0  0  0  0  0  0  0  0  0  0  0  0
    0.5674    0.4018   28.8971 C   0  0  0  0  0  0  0  0  0  0  0  0
    1.9419   -2.2029   29.9226 S   0  0  0  0  0  0  0  0  0  0  0  0
    2.9085   -1.2714   29.3816 O   0  0  0  0  0  0  0  0  0  0  0  0
    1.5930   -2.1697   31.3279 O   0  0  0  0  0  0  0  0  0  0  0  0
    2.5868   -3.8386   29.5781 C   0  0  0  0  0  0  0  0  0  0  0  0
    2.9677   -4.0373   28.1187 C   0  0  0  0  0  0  0  0  0  0  0  0
    3.7338   -5.3409   27.8853 C   0  0  0  0  0  0  0  0  0  0  0  0
    5.1221   -5.3795   28.5242 C   0  0  0  0  0  0  0  0  0  0  0  0
    5.8808   -6.4572   27.7513 C   0  0  0  0  0  0  0  0  0  0  0  0
    5.1249   -6.6539   26.4383 C   0  0  0  0  0  0  0  0  0  0  0  0
    4.0651   -5.5624   26.4126 C   0  0  0  0  0  0  0  0  0  0  0  0
  1  2  1  0
  2  3  1  0
  3  4  2  0
  4  5  1  0
  5  6  2  0
  6  7  1  0
  7  8  2  0
  2  9  1  0
  9 10  2  0
  9 11  2  0
  9 12  1  0
 12 13  1  0
 13 14  1  0
 14 15  1  0
 15 16  1  0
 16 17  1  0
 17 18  1  0
  8  3  1  0
 18 14  1  0
M  END
>  <HIPPO Compound ID>  (19) 
22874

>  <fragmenstein_outcome>  (19) 
acceptable

>  <smiles>  (19) 
C22805-P13

>  <HIPPO Pose ID>  (19) 
18101

>  <fragmenstein_runtime>  (19) 
7.771021

>  <ref_pdb>  (19) 
64

>  <Energy>  (19) 
10.339012

>  <scratch_subdir>  (19) 
/opt/xchem-fragalysis-2/maxwin/BulkDock/SCRATCH/511014/C22805-P13

>  <inchikey>  (19) 
WQMXWYLOMDHROI-UHFFFAOYSA-N

>  <fragmenstein_error>  (19) 


>  <tags>  (19) 
{'fragmenstein_placed', 'openbind_d68ev3c_c1_knitwork_pure'}

>  <alias>  (19) 
CN(c1cccnc1)S(=O)(=O)CCC1CCCC1

>  <fragmenstein_mode>  (19) 
expansion

$$$$
c1ccc([C@H]2CCCN2c2nc3ccccc3[nH]2)nc1
     RDKit          3D

 20 23  0  0  0  0  0  0  0  0999 V2000
   12.5013    4.5441   13.9249 C   0  0  0  0  0  0  0  0  0  0  0  0
   13.6384    4.9311   14.6212 C   0  0  0  0  0  0  0  0  0  0  0  0
   14.7411    4.0805   14.6612 C   0  0  0  0  0  0  0  0  0  0  0  0
   14.6841    2.8591   13.9893 C   0  0  0  0  0  0  0  0  0  0  0  0
   15.8155    1.8432   14.0482 C   0  0  1  0  0  0  0  0  0  0  0  0
   17.2352    2.4160   13.9121 C   0  0  0  0  0  0  0  0  0  0  0  0
   18.0790    1.3705   14.6208 C   0  0  0  0  0  0  0  0  0  0  0  0
   17.2164    0.9949   15.8226 C   0  0  0  0  0  0  0  0  0  0  0  0
   15.8365    1.1204   15.3384 N   0  0  0  0  0  0  0  0  0  0  0  0
   15.0007    0.0663   15.5601 C   0  0  0  0  0  0  0  0  0  0  0  0
   15.1888   -0.9619   16.3589 N   0  0  0  0  0  0  0  0  0  0  0  0
   14.1146   -1.7949   16.1616 C   0  0  0  0  0  0  0  0  0  0  0  0
   13.8492   -3.0624   16.6972 C   0  0  0  0  0  0  0  0  0  0  0  0
   12.6933   -3.7321   16.2802 C   0  0  0  0  0  0  0  0  0  0  0  0
   11.8082   -3.1399   15.3765 C   0  0  0  0  0  0  0  0  0  0  0  0
   12.0328   -1.8599   14.8640 C   0  0  0  0  0  0  0  0  0  0  0  0
   13.2087   -1.2315   15.2718 C   0  0  0  0  0  0  0  0  0  0  0  0
   13.7753   -0.0302   14.9404 N   0  0  0  0  0  0  0  0  0  0  0  0
   13.5617    2.4638   13.3215 N   0  0  0  0  0  0  0  0  0  0  0  0
   12.5093    3.3128   13.2968 C   0  0  0  0  0  0  0  0  0  0  0  0
  1  2  2  0
  2  3  1  0
  3  4  2  0
  5  4  1  1
  5  6  1  0
  6  7  1  0
  7  8  1  0
  8  9  1  0
  9 10  1  0
 10 11  2  0
 11 12  1  0
 12 13  2  0
 13 14  1  0
 14 15  2  0
 15 16  1  0
 16 17  2  0
 17 18  1  0
  4 19  1  0
 19 20  2  0
 20  1  1  0
  9  5  1  0
 18 10  1  0
 17 12  1  0
M  END
>  <HIPPO Compound ID>  (20) 
27867

>  <fragmenstein_outcome>  (20) 
acceptable

>  <smiles>  (20) 
C6013-P95

>  <HIPPO Pose ID>  (20) 
18530

>  <fragmenstein_runtime>  (20) 
2.340524

>  <ref_pdb>  (20) 
64

>  <Energy>  (20) 
26.692761

>  <scratch_subdir>  (20) 
/opt/xchem-fragalysis-2/maxwin/BulkDock/SCRATCH/511014/C6013-P95

>  <inchikey>  (20) 
DNZBRVOJVZFQMT-UHFFFAOYSA-N

>  <fragmenstein_error>  (20) 


>  <tags>  (20) 
{'fragmenstein_placed', 'openbind_d68ev3c_c1_knitwork_pure'}

>  <alias>  (20) 
c1ccc([C@H]2CCCN2c2nc3ccccc3[nH]2)nc1

>  <fragmenstein_mode>  (20) 
expansion

$$$$
c1ccc2c(c1)ncn2[C@@H]1CCCN(C[C@H]2CCNC2)C1
     RDKit          3D

 21 24  0  0  0  0  0  0  0  0999 V2000
   11.2327   -2.4786   15.1929 C   0  0  0  0  0  0  0  0  0  0  0  0
   12.2004   -3.0721   15.9991 C   0  0  0  0  0  0  0  0  0  0  0  0
   13.1499   -2.2961   16.6595 C   0  0  0  0  0  0  0  0  0  0  0  0
   13.0791   -0.9075   16.4767 C   0  0  0  0  0  0  0  0  0  0  0  0
   12.1095   -0.2920   15.6979 C   0  0  0  0  0  0  0  0  0  0  0  0
   11.1632   -1.0867   15.0466 C   0  0  0  0  0  0  0  0  0  0  0  0
   12.2608    1.0716   15.7110 N   0  0  0  0  0  0  0  0  0  0  0  0
   13.3318    1.2980   16.4397 C   0  0  0  0  0  0  0  0  0  0  0  0
   13.8656    0.1381   16.9133 N   0  0  0  0  0  0  0  0  0  0  0  0
   15.1228   -0.0671   17.5973 C   0  0  2  0  0  0  0  0  0  0  0  0
   15.6811    1.0754   18.4551 C   0  0  0  0  0  0  0  0  0  0  0  0
   17.1529    0.8007   18.8174 C   0  0  0  0  0  0  0  0  0  0  0  0
   17.5403   -0.6778   18.6401 C   0  0  0  0  0  0  0  0  0  0  0  0
   17.3388   -1.1537   17.2581 N   0  0  0  0  0  0  0  0  0  0  0  0
   17.2599   -2.6209   17.1685 C   0  0  0  0  0  0  0  0  0  0  0  0
   18.1445   -3.1505   16.0388 C   0  0  1  0  0  0  0  0  0  0  0  0
   18.1943   -4.6695   15.9922 C   0  0  0  0  0  0  0  0  0  0  0  0
   18.7069   -4.9667   14.5897 C   0  0  0  0  0  0  0  0  0  0  0  0
   18.5513   -3.7321   13.8024 N   0  0  0  0  0  0  0  0  0  0  0  0
   17.7182   -2.8274   14.6173 C   0  0  0  0  0  0  0  0  0  0  0  0
   16.1990   -0.5081   16.5937 C   0  0  0  0  0  0  0  0  0  0  0  0
  1  2  2  0
  2  3  1  0
  3  4  2  0
  4  5  1  0
  5  6  2  0
  5  7  1  0
  7  8  2  0
  8  9  1  0
 10  9  1  6
 10 11  1  0
 11 12  1  0
 12 13  1  0
 13 14  1  0
 14 15  1  0
 16 15  1  1
 16 17  1  0
 17 18  1  0
 18 19  1  0
 19 20  1  0
 14 21  1  0
  6  1  1  0
 21 10  1  0
  9  4  1  0
 20 16  1  0
M  END
>  <HIPPO Compound ID>  (21) 
15381

>  <fragmenstein_outcome>  (21) 
acceptable

>  <smiles>  (21) 
C23515-P103

>  <HIPPO Pose ID>  (21) 
20551

>  <fragmenstein_runtime>  (21) 
1.761759

>  <ref_pdb>  (21) 
64

>  <Energy>  (21) 
52.013533

>  <scratch_subdir>  (21) 
/opt/xchem-fragalysis-2/maxwin/BulkDock/SCRATCH/511014/C23515-P103

>  <inchikey>  (21) 
QZHILJCBKXPZQP-UHFFFAOYSA-N

>  <fragmenstein_error>  (21) 


>  <tags>  (21) 
{'fragmenstein_placed', 'openbind_d68ev3c_c1_knitwork_pure'}

>  <alias>  (21) 
c1ccc2c(c1)ncn2[C@@H]1CCCN(C[C@H]2CCNC2)C1

>  <fragmenstein_mode>  (21) 
expansion

$$$$
CC(C)(CO)NCc1cccc(Br)n1
     RDKit          3D

 14 14  0  0  0  0  0  0  0  0999 V2000
   16.0532    2.0134   16.3965 C   0  0  0  0  0  0  0  0  0  0  0  0
   15.0508    1.8940   15.2368 C   0  0  0  0  0  0  0  0  0  0  0  0
   14.0515    3.0661   15.3381 C   0  0  0  0  0  0  0  0  0  0  0  0
   15.7971    1.9833   13.8807 C   0  0  0  0  0  0  0  0  0  0  0  0
   14.8827    1.8829   12.7909 O   0  0  0  0  0  0  0  0  0  0  0  0
   14.2177    0.6719   15.3484 N   0  0  0  0  0  0  0  0  0  0  0  0
   14.9407   -0.6043   15.2284 C   0  0  0  0  0  0  0  0  0  0  0  0
   14.0803   -1.7520   15.7240 C   0  0  0  0  0  0  0  0  0  0  0  0
   12.9082   -2.0857   15.0497 C   0  0  0  0  0  0  0  0  0  0  0  0
   12.1242   -3.1106   15.5553 C   0  0  0  0  0  0  0  0  0  0  0  0
   12.5389   -3.7755   16.7055 C   0  0  0  0  0  0  0  0  0  0  0  0
   13.7026   -3.3713   17.3375 C   0  0  0  0  0  0  0  0  0  0  0  0
   14.2468   -4.2150   18.9491 Br  0  0  0  0  0  0  0  0  0  0  0  0
   14.4720   -2.3690   16.8699 N   0  0  0  0  0  0  0  0  0  0  0  0
  1  2  1  0
  2  3  1  0
  2  4  1  0
  4  5  1  0
  2  6  1  0
  6  7  1  0
  7  8  1  0
  8  9  2  0
  9 10  1  0
 10 11  2  0
 11 12  1  0
 12 13  1  0
 12 14  2  0
 14  8  1  0
M  END
>  <HIPPO Compound ID>  (22) 
27243

>  <fragmenstein_outcome>  (22) 
acceptable

>  <smiles>  (22) 
C30417-P60

>  <HIPPO Pose ID>  (22) 
21871

>  <fragmenstein_runtime>  (22) 
1.391764

>  <ref_pdb>  (22) 
64

>  <Energy>  (22) 
52.161114

>  <scratch_subdir>  (22) 
/opt/xchem-fragalysis-2/maxwin/BulkDock/SCRATCH/511014/C30417-P60

>  <inchikey>  (22) 
DZWSAAIELUYSMJ-UHFFFAOYSA-N

>  <fragmenstein_error>  (22) 


>  <tags>  (22) 
{'fragmenstein_placed', 'openbind_d68ev3c_c1_knitwork_pure'}

>  <alias>  (22) 
CC(C)(CO)NCc1cccc(Br)n1

>  <fragmenstein_mode>  (22) 
expansion

$$$$
CC(C)(CO)NCc1c(F)cncc1F
     RDKit          3D

 15 15  0  0  0  0  0  0  0  0999 V2000
   16.1995    1.8103   16.3944 C   0  0  0  0  0  0  0  0  0  0  0  0
   15.1406    1.7673   15.2838 C   0  0  0  0  0  0  0  0  0  0  0  0
   14.2173    2.9960   15.4361 C   0  0  0  0  0  0  0  0  0  0  0  0
   15.8253    1.8282   13.8940 C   0  0  0  0  0  0  0  0  0  0  0  0
   14.8581    1.7926   12.8471 O   0  0  0  0  0  0  0  0  0  0  0  0
   14.2475    0.5973   15.4314 N   0  0  0  0  0  0  0  0  0  0  0  0
   14.8562   -0.7291   15.2928 C   0  0  0  0  0  0  0  0  0  0  0  0
   13.7965   -1.7764   15.4872 C   0  0  0  0  0  0  0  0  0  0  0  0
   12.7156   -1.8551   14.6067 C   0  0  0  0  0  0  0  0  0  0  0  0
   12.6573   -1.0786   13.5180 F   0  0  0  0  0  0  0  0  0  0  0  0
   11.6836   -2.7356   14.8694 C   0  0  0  0  0  0  0  0  0  0  0  0
   11.6607   -3.5544   15.9409 N   0  0  0  0  0  0  0  0  0  0  0  0
   12.7458   -3.5232   16.7490 C   0  0  0  0  0  0  0  0  0  0  0  0
   13.8147   -2.6622   16.5641 C   0  0  0  0  0  0  0  0  0  0  0  0
   14.8343   -2.6834   17.4330 F   0  0  0  0  0  0  0  0  0  0  0  0
  1  2  1  0
  2  3  1  0
  2  4  1  0
  4  5  1  0
  2  6  1  0
  6  7  1  0
  7  8  1  0
  8  9  2  0
  9 10  1  0
  9 11  1  0
 11 12  2  0
 12 13  1  0
 13 14  2  0
 14 15  1  0
 14  8  1  0
M  END
>  <HIPPO Compound ID>  (23) 
33290

>  <fragmenstein_outcome>  (23) 
acceptable

>  <smiles>  (23) 
C30426-P60

>  <HIPPO Pose ID>  (23) 
21876

>  <fragmenstein_runtime>  (23) 
3.493112

>  <ref_pdb>  (23) 
64

>  <Energy>  (23) 
46.457728

>  <scratch_subdir>  (23) 
/opt/xchem-fragalysis-2/maxwin/BulkDock/SCRATCH/511014/C30426-P60

>  <inchikey>  (23) 
GOXZBHUQMBZJKD-UHFFFAOYSA-N

>  <fragmenstein_error>  (23) 


>  <tags>  (23) 
{'fragmenstein_placed', 'openbind_d68ev3c_c1_knitwork_pure'}

>  <alias>  (23) 
CC(C)(CO)NCc1c(F)cncc1F

>  <fragmenstein_mode>  (23) 
expansion

$$$$
Cc1cc(CNC(C)(C)CO)ccn1
     RDKit          3D

 14 14  0  0  0  0  0  0  0  0999 V2000
   10.9970   -3.0455   14.6109 C   0  0  0  0  0  0  0  0  0  0  0  0
   12.2072   -2.8505   15.4471 C   0  0  0  0  0  0  0  0  0  0  0  0
   13.1349   -1.9082   15.0441 C   0  0  0  0  0  0  0  0  0  0  0  0
   14.2351   -1.6543   15.8569 C   0  0  0  0  0  0  0  0  0  0  0  0
   15.1786   -0.5394   15.4878 C   0  0  0  0  0  0  0  0  0  0  0  0
   14.4383    0.7186   15.4768 N   0  0  0  0  0  0  0  0  0  0  0  0
   15.2055    1.9613   15.2984 C   0  0  0  0  0  0  0  0  0  0  0  0
   16.1850    2.1647   16.4636 C   0  0  0  0  0  0  0  0  0  0  0  0
   14.1571    3.0936   15.3396 C   0  0  0  0  0  0  0  0  0  0  0  0
   15.9726    2.0311   13.9523 C   0  0  0  0  0  0  0  0  0  0  0  0
   15.0956    1.8919   12.8365 O   0  0  0  0  0  0  0  0  0  0  0  0
   14.3825   -2.4055   17.0250 C   0  0  0  0  0  0  0  0  0  0  0  0
   13.4112   -3.3443   17.3367 C   0  0  0  0  0  0  0  0  0  0  0  0
   12.3202   -3.5690   16.5816 N   0  0  0  0  0  0  0  0  0  0  0  0
  1  2  1  0
  2  3  2  0
  3  4  1  0
  4  5  1  0
  5  6  1  0
  6  7  1  0
  7  8  1  0
  7  9  1  0
  7 10  1  0
 10 11  1  0
  4 12  2  0
 12 13  1  0
 13 14  2  0
 14  2  1  0
M  END
>  <HIPPO Compound ID>  (24) 
32037

>  <fragmenstein_outcome>  (24) 
acceptable

>  <smiles>  (24) 
C30444-P60

>  <HIPPO Pose ID>  (24) 
21884

>  <fragmenstein_runtime>  (24) 
2.309496

>  <ref_pdb>  (24) 
64

>  <Energy>  (24) 
40.943077

>  <scratch_subdir>  (24) 
/opt/xchem-fragalysis-2/maxwin/BulkDock/SCRATCH/511014/C30444-P60

>  <inchikey>  (24) 
XWXITZUCHFLYJU-UHFFFAOYSA-N

>  <fragmenstein_error>  (24) 


>  <tags>  (24) 
{'fragmenstein_placed', 'openbind_d68ev3c_c1_knitwork_pure'}

>  <alias>  (24) 
Cc1cc(CNC(C)(C)CO)ccn1

>  <fragmenstein_mode>  (24) 
expansion

$$$$
CC(C)(CO)NCc1ccncc1Cl
     RDKit          3D

 14 14  0  0  0  0  0  0  0  0999 V2000
   16.2196    1.8706   16.5333 C   0  0  0  0  0  0  0  0  0  0  0  0
   15.1815    1.8298   15.4042 C   0  0  0  0  0  0  0  0  0  0  0  0
   14.2669    3.0677   15.5330 C   0  0  0  0  0  0  0  0  0  0  0  0
   15.8986    1.8787   14.0272 C   0  0  0  0  0  0  0  0  0  0  0  0
   14.9558    1.9063   12.9576 O   0  0  0  0  0  0  0  0  0  0  0  0
   14.2765    0.6739   15.5619 N   0  0  0  0  0  0  0  0  0  0  0  0
   14.8730   -0.6579   15.4712 C   0  0  0  0  0  0  0  0  0  0  0  0
   13.8135   -1.7172   15.6934 C   0  0  0  0  0  0  0  0  0  0  0  0
   13.9233   -2.6201   16.7586 C   0  0  0  0  0  0  0  0  0  0  0  0
   12.9134   -3.5511   16.9512 C   0  0  0  0  0  0  0  0  0  0  0  0
   11.8167   -3.6442   16.1695 N   0  0  0  0  0  0  0  0  0  0  0  0
   11.7363   -2.7886   15.1331 C   0  0  0  0  0  0  0  0  0  0  0  0
   12.6909   -1.8237   14.8631 C   0  0  0  0  0  0  0  0  0  0  0  0
   12.4307   -0.7665   13.5453 Cl  0  0  0  0  0  0  0  0  0  0  0  0
  1  2  1  0
  2  3  1  0
  2  4  1  0
  4  5  1  0
  2  6  1  0
  6  7  1  0
  7  8  1  0
  8  9  2  0
  9 10  1  0
 10 11  2  0
 11 12  1  0
 12 13  2  0
 13 14  1  0
 13  8  1  0
M  END
>  <HIPPO Compound ID>  (25) 
24504

>  <fragmenstein_outcome>  (25) 
acceptable

>  <smiles>  (25) 
C30448-P60

>  <HIPPO Pose ID>  (25) 
21885

>  <fragmenstein_runtime>  (25) 
1.911593

>  <ref_pdb>  (25) 
64

>  <Energy>  (25) 
49.681689

>  <scratch_subdir>  (25) 
/opt/xchem-fragalysis-2/maxwin/BulkDock/SCRATCH/511014/C30448-P60

>  <inchikey>  (25) 
LMCRJHYUVLYHJS-UHFFFAOYSA-N

>  <fragmenstein_error>  (25) 


>  <tags>  (25) 
{'fragmenstein_placed', 'openbind_d68ev3c_c1_knitwork_pure'}

>  <alias>  (25) 
CC(C)(CO)NCc1ccncc1Cl

>  <fragmenstein_mode>  (25) 
expansion

$$$$
CC(C)(CO)NCc1cncc(Cl)c1
     RDKit          3D

 14 14  0  0  0  0  0  0  0  0999 V2000
   16.1616    2.2149   16.4605 C   0  0  0  0  0  0  0  0  0  0  0  0
   15.2152    1.9889   15.2738 C   0  0  0  0  0  0  0  0  0  0  0  0
   14.1129    3.0690   15.3198 C   0  0  0  0  0  0  0  0  0  0  0  0
   15.9926    2.1140   13.9375 C   0  0  0  0  0  0  0  0  0  0  0  0
   15.1174    1.9187   12.8258 O   0  0  0  0  0  0  0  0  0  0  0  0
   14.4919    0.7073   15.3705 N   0  0  0  0  0  0  0  0  0  0  0  0
   15.3042   -0.5035   15.4985 C   0  0  0  0  0  0  0  0  0  0  0  0
   14.4302   -1.6714   15.8657 C   0  0  0  0  0  0  0  0  0  0  0  0
   14.7785   -2.5702   16.8740 C   0  0  0  0  0  0  0  0  0  0  0  0
   14.0144   -3.6194   17.2626 N   0  0  0  0  0  0  0  0  0  0  0  0
   12.8330   -3.7634   16.6214 C   0  0  0  0  0  0  0  0  0  0  0  0
   12.4095   -2.9271   15.6050 C   0  0  0  0  0  0  0  0  0  0  0  0
   10.9205   -3.1193   14.8222 Cl  0  0  0  0  0  0  0  0  0  0  0  0
   13.2257   -1.8903   15.2035 C   0  0  0  0  0  0  0  0  0  0  0  0
  1  2  1  0
  2  3  1  0
  2  4  1  0
  4  5  1  0
  2  6  1  0
  6  7  1  0
  7  8  1  0
  8  9  2  0
  9 10  1  0
 10 11  2  0
 11 12  1  0
 12 13  1  0
 12 14  2  0
 14  8  1  0
M  END
>  <HIPPO Compound ID>  (26) 
33707

>  <fragmenstein_outcome>  (26) 
acceptable

>  <smiles>  (26) 
C30449-P60

>  <HIPPO Pose ID>  (26) 
21886

>  <fragmenstein_runtime>  (26) 
0.934348

>  <ref_pdb>  (26) 
64

>  <Energy>  (26) 
50.395098

>  <scratch_subdir>  (26) 
/opt/xchem-fragalysis-2/maxwin/BulkDock/SCRATCH/511014/C30449-P60

>  <inchikey>  (26) 
ZNQVUPVHILGFBE-UHFFFAOYSA-N

>  <fragmenstein_error>  (26) 


>  <tags>  (26) 
{'fragmenstein_placed', 'openbind_d68ev3c_c1_knitwork_pure'}

>  <alias>  (26) 
CC(C)(CO)NCc1cncc(Cl)c1

>  <fragmenstein_mode>  (26) 
expansion

$$$$
O=C(N[C@@H]1CCc2ncsc2C1)c1cnc(-c2ccsc2)s1
     RDKit          3D

 22 25  0  0  0  0  0  0  0  0999 V2000
  -12.7725  -25.2367   26.1706 O   0  0  0  0  0  0  0  0  0  0  0  0
  -12.5020  -25.5842   27.2480 C   0  0  0  0  0  0  0  0  0  0  0  0
  -12.7420  -26.9335   27.9511 N   0  0  0  0  0  0  0  0  0  0  0  0
  -13.4508  -28.1083   27.5068 C   0  0  2  0  0  0  0  0  0  0  0  0
  -14.9740  -27.9400   27.6938 C   0  0  0  0  0  0  0  0  0  0  0  0
  -15.7551  -29.1066   27.0620 C   0  0  0  0  0  0  0  0  0  0  0  0
  -15.0984  -30.4178   27.3400 C   0  0  0  0  0  0  0  0  0  0  0  0
  -15.7305  -31.6092   27.0641 N   0  0  0  0  0  0  0  0  0  0  0  0
  -14.9293  -32.6055   27.3823 C   0  0  0  0  0  0  0  0  0  0  0  0
  -13.3829  -32.1695   27.9980 S   0  0  0  0  0  0  0  0  0  0  0  0
  -13.8161  -30.5331   27.8374 C   0  0  0  0  0  0  0  0  0  0  0  0
  -12.9342  -29.3898   28.1983 C   0  0  0  0  0  0  0  0  0  0  0  0
  -11.8668  -24.6577   28.1773 C   0  0  0  0  0  0  0  0  0  0  0  0
  -11.8322  -23.2786   28.1243 C   0  0  0  0  0  0  0  0  0  0  0  0
  -11.3963  -22.6547   29.2805 N   0  0  0  0  0  0  0  0  0  0  0  0
  -10.9202  -23.5551   30.1107 C   0  0  0  0  0  0  0  0  0  0  0  0
  -10.3975  -23.1887   31.5378 C   0  0  0  0  0  0  0  0  0  0  0  0
  -10.7273  -21.9792   32.2069 C   0  0  0  0  0  0  0  0  0  0  0  0
  -10.2553  -21.9698   33.4990 C   0  0  0  0  0  0  0  0  0  0  0  0
   -9.2488  -23.3147   33.8248 S   0  0  0  0  0  0  0  0  0  0  0  0
   -9.6088  -24.0148   32.3084 C   0  0  0  0  0  0  0  0  0  0  0  0
  -11.0041  -25.1716   29.5611 S   0  0  0  0  0  0  0  0  0  0  0  0
  1  2  2  0
  2  3  1  0
  4  3  1  1
  4  5  1  0
  5  6  1  0
  6  7  1  0
  7  8  1  0
  8  9  2  0
  9 10  1  0
 10 11  1  0
 11 12  1  0
  2 13  1  0
 13 14  2  0
 14 15  1  0
 15 16  2  0
 16 17  1  0
 17 18  1  0
 18 19  2  0
 19 20  1  0
 20 21  1  0
 16 22  1  0
 12  4  1  0
 22 13  1  0
 11  7  2  0
 21 17  2  0
M  END
>  <HIPPO Compound ID>  (27) 
26446

>  <fragmenstein_outcome>  (27) 
acceptable

>  <smiles>  (27) 
C32434-P88

>  <HIPPO Pose ID>  (27) 
22909

>  <fragmenstein_runtime>  (27) 
8.569416

>  <ref_pdb>  (27) 
64

>  <Energy>  (27) 
29.071846

>  <scratch_subdir>  (27) 
/opt/xchem-fragalysis-2/maxwin/BulkDock/SCRATCH/511014/C32434-P88

>  <inchikey>  (27) 
OIQPXRVFWCSDJK-UHFFFAOYSA-N

>  <fragmenstein_error>  (27) 


>  <tags>  (27) 
{'fragmenstein_placed', 'openbind_d68ev3c_c1_knitwork_pure'}

>  <alias>  (27) 
O=C(N[C@@H]1CCc2ncsc2C1)c1cnc(-c2ccsc2)s1

>  <fragmenstein_mode>  (27) 
expansion

$$$$
C[C@H](NCc1cscn1)[C@H](C)NC(=O)Cc1ccsc1
     RDKit          3D

 20 21  0  0  0  0  0  0  0  0999 V2000
   14.1628    2.5864   15.1896 C   0  0  0  0  0  0  0  0  0  0  0  0
   14.7517    1.3442   14.4958 C   0  0  2  0  0  0  0  0  0  0  0  0
   15.1174    0.3735   15.5400 N   0  0  0  0  0  0  0  0  0  0  0  0
   15.2340   -1.0216   15.1133 C   0  0  0  0  0  0  0  0  0  0  0  0
   13.9792   -1.8045   15.3736 C   0  0  0  0  0  0  0  0  0  0  0  0
   12.8127   -1.7670   14.6297 C   0  0  0  0  0  0  0  0  0  0  0  0
   11.6719   -2.8764   15.2553 S   0  0  0  0  0  0  0  0  0  0  0  0
   12.8123   -3.3628   16.4378 C   0  0  0  0  0  0  0  0  0  0  0  0
   13.9554   -2.7133   16.4313 N   0  0  0  0  0  0  0  0  0  0  0  0
   15.9497    1.8064   13.5914 C   0  0  2  0  0  0  0  0  0  0  0  0
   15.4720    2.6399   12.4025 C   0  0  0  0  0  0  0  0  0  0  0  0
   16.7727    0.7228   13.0896 N   0  0  0  0  0  0  0  0  0  0  0  0
   18.2551    0.3627   13.3838 C   0  0  0  0  0  0  0  0  0  0  0  0
   19.0603    0.9275   14.0143 O   0  0  0  0  0  0  0  0  0  0  0  0
   18.5512   -0.9585   12.6700 C   0  0  0  0  0  0  0  0  0  0  0  0
   18.5604   -0.8191   11.1740 C   0  0  0  0  0  0  0  0  0  0  0  0
   19.2854    0.1861   10.4498 C   0  0  0  0  0  0  0  0  0  0  0  0
   19.1214    0.0825    9.0869 C   0  0  0  0  0  0  0  0  0  0  0  0
   18.1114   -1.2265    8.6633 S   0  0  0  0  0  0  0  0  0  0  0  0
   17.8922   -1.6612   10.3033 C   0  0  0  0  0  0  0  0  0  0  0  0
  2  1  1  1
  2  3  1  0
  3  4  1  0
  4  5  1  0
  5  6  2  0
  6  7  1  0
  7  8  1  0
  8  9  2  0
  2 10  1  0
 10 11  1  6
 10 12  1  0
 12 13  1  0
 13 14  2  0
 13 15  1  0
 15 16  1  0
 16 17  1  0
 17 18  2  0
 18 19  1  0
 19 20  1  0
  9  5  1  0
 20 16  2  0
M  END
>  <HIPPO Compound ID>  (28) 
14395

>  <fragmenstein_outcome>  (28) 
acceptable

>  <smiles>  (28) 
C32442-P76

>  <HIPPO Pose ID>  (28) 
24193

>  <fragmenstein_runtime>  (28) 
2.795994

>  <ref_pdb>  (28) 
64

>  <Energy>  (28) 
67.569668

>  <scratch_subdir>  (28) 
/opt/xchem-fragalysis-2/maxwin/BulkDock/SCRATCH/511014/C32442-P76

>  <inchikey>  (28) 
POBLIQQWZCLEBG-UHFFFAOYSA-N

>  <fragmenstein_error>  (28) 


>  <tags>  (28) 
{'fragmenstein_placed', 'openbind_d68ev3c_c1_knitwork_pure'}

>  <alias>  (28) 
C[C@H](NCc1cscn1)[C@H](C)NC(=O)Cc1ccsc1

>  <fragmenstein_mode>  (28) 
expansion

$$$$
CC(C)N1C[C@@H]([C@@H]2CCCN2)[C@@H](Br)C1
     RDKit          3D

 14 15  0  0  0  0  0  0  0  0999 V2000
   -0.9414    4.1448   23.5904 C   0  0  0  0  0  0  0  0  0  0  0  0
   -2.1132    3.5085   24.3341 C   0  0  0  0  0  0  0  0  0  0  0  0
   -3.3299    4.4211   24.3321 C   0  0  0  0  0  0  0  0  0  0  0  0
   -1.6503    3.0497   25.6384 N   0  0  0  0  0  0  0  0  0  0  0  0
   -1.5910    4.0527   26.7052 C   0  0  0  0  0  0  0  0  0  0  0  0
   -1.0666    3.2098   27.8676 C   0  0  2  0  0  0  0  0  0  0  0  0
    0.8643    3.1726   27.7145 Br  0  0  0  0  0  0  0  0  0  0  0  0
   -1.8410    1.8918   27.7206 C   0  0  2  0  0  0  0  0  0  0  0  0
   -1.3676    0.4849   28.1808 C   0  0  2  0  0  0  0  0  0  0  0  0
   -1.3940    0.2386   29.6865 C   0  0  0  0  0  0  0  0  0  0  0  0
    0.0506    0.3404   30.1090 C   0  0  0  0  0  0  0  0  0  0  0  0
    0.7567   -0.2950   28.9306 C   0  0  0  0  0  0  0  0  0  0  0  0
   -0.0200    0.1149   27.7580 N   0  0  0  0  0  0  0  0  0  0  0  0
   -2.2980    1.9012   26.2519 C   0  0  0  0  0  0  0  0  0  0  0  0
  1  2  1  0
  2  3  1  0
  2  4  1  0
  4  5  1  0
  5  6  1  0
  6  7  1  6
  6  8  1  0
  8  9  1  0
  9 10  1  1
 10 11  1  0
 11 12  1  0
 12 13  1  0
  8 14  1  6
 14  4  1  0
 13  9  1  0
M  END
>  <HIPPO Compound ID>  (29) 
20147

>  <fragmenstein_outcome>  (29) 
acceptable

>  <smiles>  (29) 
C28480-P70

>  <HIPPO Pose ID>  (29) 
25080

>  <fragmenstein_runtime>  (29) 
2.28767

>  <ref_pdb>  (29) 
30

>  <Energy>  (29) 
48.230381

>  <scratch_subdir>  (29) 
/opt/xchem-fragalysis-2/maxwin/BulkDock/SCRATCH/511015/C28480-P70

>  <inchikey>  (29) 
JFDUEAZJBLLFTI-UHFFFAOYSA-N

>  <fragmenstein_error>  (29) 


>  <tags>  (29) 
{'fragmenstein_placed', 'openbind_d68ev3c_c1_knitwork_pure'}

>  <alias>  (29) 
CC(C)N1C[C@@H]([C@@H]2CCCN2)[C@@H](Br)C1

>  <fragmenstein_mode>  (29) 
expansion

$$$$
CC(C)N1C[C@@H]([C@@H]2CCCN2)[C@@H](Cl)C1
     RDKit          3D

 14 15  0  0  0  0  0  0  0  0999 V2000
   -0.9341    4.1424   23.5801 C   0  0  0  0  0  0  0  0  0  0  0  0
   -2.1041    3.5102   24.3298 C   0  0  0  0  0  0  0  0  0  0  0  0
   -3.3172    4.4281   24.3358 C   0  0  0  0  0  0  0  0  0  0  0  0
   -1.6360    3.0462   25.6310 N   0  0  0  0  0  0  0  0  0  0  0  0
   -1.5528    4.0504   26.6945 C   0  0  0  0  0  0  0  0  0  0  0  0
   -1.0401    3.2078   27.8649 C   0  0  2  0  0  0  0  0  0  0  0  0
    0.7286    3.1179   27.7385 Cl  0  0  0  0  0  0  0  0  0  0  0  0
   -1.8488    1.8996   27.7214 C   0  0  2  0  0  0  0  0  0  0  0  0
   -1.3757    0.4910   28.1758 C   0  0  2  0  0  0  0  0  0  0  0  0
   -1.3796    0.2471   29.6811 C   0  0  0  0  0  0  0  0  0  0  0  0
    0.0638    0.4110   30.0865 C   0  0  0  0  0  0  0  0  0  0  0  0
    0.7847   -0.2075   28.9071 C   0  0  0  0  0  0  0  0  0  0  0  0
   -0.0335    0.1208   27.7358 N   0  0  0  0  0  0  0  0  0  0  0  0
   -2.3034    1.9126   26.2521 C   0  0  0  0  0  0  0  0  0  0  0  0
  1  2  1  0
  2  3  1  0
  2  4  1  0
  4  5  1  0
  5  6  1  0
  6  7  1  6
  6  8  1  0
  8  9  1  0
  9 10  1  1
 10 11  1  0
 11 12  1  0
 12 13  1  0
  8 14  1  6
 14  4  1  0
 13  9  1  0
M  END
>  <HIPPO Compound ID>  (30) 
8615

>  <fragmenstein_outcome>  (30) 
acceptable

>  <smiles>  (30) 
C28490-P70

>  <HIPPO Pose ID>  (30) 
25082

>  <fragmenstein_runtime>  (30) 
2.257532

>  <ref_pdb>  (30) 
30

>  <Energy>  (30) 
49.290226

>  <scratch_subdir>  (30) 
/opt/xchem-fragalysis-2/maxwin/BulkDock/SCRATCH/511015/C28490-P70

>  <inchikey>  (30) 
XKRJXVAYWCSYOF-UHFFFAOYSA-N

>  <fragmenstein_error>  (30) 


>  <tags>  (30) 
{'fragmenstein_placed', 'openbind_d68ev3c_c1_knitwork_pure'}

>  <alias>  (30) 
CC(C)N1C[C@@H]([C@@H]2CCCN2)[C@@H](Cl)C1

>  <fragmenstein_mode>  (30) 
expansion

$$$$
CC(C)N1C[C@@H]([C@@H]2CCCN2)[C@@H](O)C1
     RDKit          3D

 14 15  0  0  0  0  0  0  0  0999 V2000
   -0.7785    3.6913   23.9580 C   0  0  0  0  0  0  0  0  0  0  0  0
   -2.0014    4.2264   24.7119 C   0  0  0  0  0  0  0  0  0  0  0  0
   -3.2224    4.1592   23.7983 C   0  0  0  0  0  0  0  0  0  0  0  0
   -2.2827    3.6128   26.0191 N   0  0  0  0  0  0  0  0  0  0  0  0
   -1.5493    4.2716   27.1231 C   0  0  0  0  0  0  0  0  0  0  0  0
   -0.8876    3.1501   27.9230 C   0  0  2  0  0  0  0  0  0  0  0  0
    0.4273    2.9717   27.3995 O   0  0  0  0  0  0  0  0  0  0  0  0
   -1.8095    1.9608   27.6575 C   0  0  2  0  0  0  0  0  0  0  0  0
   -1.3406    0.5289   28.0087 C   0  0  2  0  0  0  0  0  0  0  0  0
   -1.4872    0.1902   29.4924 C   0  0  0  0  0  0  0  0  0  0  0  0
   -0.1039    0.3980   30.0609 C   0  0  0  0  0  0  0  0  0  0  0  0
    0.7656   -0.1224   28.9399 C   0  0  0  0  0  0  0  0  0  0  0  0
    0.0812    0.2880   27.7019 N   0  0  0  0  0  0  0  0  0  0  0  0
   -2.0970    2.1733   26.1736 C   0  0  0  0  0  0  0  0  0  0  0  0
  1  2  1  0
  2  3  1  0
  2  4  1  0
  4  5  1  0
  5  6  1  0
  6  7  1  6
  6  8  1  0
  8  9  1  0
  9 10  1  1
 10 11  1  0
 11 12  1  0
 12 13  1  0
  8 14  1  6
 14  4  1  0
 13  9  1  0
M  END
>  <HIPPO Compound ID>  (31) 
16691

>  <fragmenstein_outcome>  (31) 
acceptable

>  <smiles>  (31) 
C28498-P70

>  <HIPPO Pose ID>  (31) 
25084

>  <fragmenstein_runtime>  (31) 
2.490547

>  <ref_pdb>  (31) 
30

>  <Energy>  (31) 
44.74133

>  <scratch_subdir>  (31) 
/opt/xchem-fragalysis-2/maxwin/BulkDock/SCRATCH/511015/C28498-P70

>  <inchikey>  (31) 
QXBJPJAGEYKGFB-UHFFFAOYSA-N

>  <fragmenstein_error>  (31) 


>  <tags>  (31) 
{'fragmenstein_placed', 'openbind_d68ev3c_c1_knitwork_pure'}

>  <alias>  (31) 
CC(C)N1C[C@@H]([C@@H]2CCCN2)[C@@H](O)C1

>  <fragmenstein_mode>  (31) 
expansion

$$$$
c1cncc(CN(c2nc3ccccc3o2)C2CC2)c1
     RDKit          3D

 20 23  0  0  0  0  0  0  0  0999 V2000
  -12.0050  -26.2504    9.0747 C   0  0  0  0  0  0  0  0  0  0  0  0
  -13.0650  -25.3676    9.1813 C   0  0  0  0  0  0  0  0  0  0  0  0
  -13.4473  -24.5335    8.1926 N   0  0  0  0  0  0  0  0  0  0  0  0
  -12.7195  -24.5675    7.0512 C   0  0  0  0  0  0  0  0  0  0  0  0
  -11.6154  -25.3885    6.8452 C   0  0  0  0  0  0  0  0  0  0  0  0
  -10.7561  -25.2466    5.5936 C   0  0  0  0  0  0  0  0  0  0  0  0
  -10.2458  -23.8823    5.3838 N   0  0  0  0  0  0  0  0  0  0  0  0
   -9.6882  -23.2172    6.4241 C   0  0  0  0  0  0  0  0  0  0  0  0
   -9.6582  -21.9247    6.6856 N   0  0  0  0  0  0  0  0  0  0  0  0
   -9.2831  -21.8785    8.0040 C   0  0  0  0  0  0  0  0  0  0  0  0
   -9.1548  -20.8101    8.8896 C   0  0  0  0  0  0  0  0  0  0  0  0
   -8.7186  -21.0923   10.1957 C   0  0  0  0  0  0  0  0  0  0  0  0
   -8.4471  -22.3992   10.6143 C   0  0  0  0  0  0  0  0  0  0  0  0
   -8.5772  -23.4768    9.7401 C   0  0  0  0  0  0  0  0  0  0  0  0
   -8.9856  -23.1492    8.4566 C   0  0  0  0  0  0  0  0  0  0  0  0
   -9.1762  -24.0034    7.4235 O   0  0  0  0  0  0  0  0  0  0  0  0
  -10.5738  -23.1181    4.1764 C   0  0  0  0  0  0  0  0  0  0  0  0
  -11.5770  -21.9930    4.1886 C   0  0  0  0  0  0  0  0  0  0  0  0
  -11.8761  -23.2478    3.4293 C   0  0  0  0  0  0  0  0  0  0  0  0
  -11.2784  -26.2669    7.8855 C   0  0  0  0  0  0  0  0  0  0  0  0
  1  2  2  0
  2  3  1  0
  3  4  2  0
  4  5  1  0
  5  6  1  0
  6  7  1  0
  7  8  1  0
  8  9  2  0
  9 10  1  0
 10 11  2  0
 11 12  1  0
 12 13  2  0
 13 14  1  0
 14 15  2  0
 15 16  1  0
  7 17  1  0
 17 18  1  0
 18 19  1  0
  5 20  2  0
 20  1  1  0
 16  8  1  0
 19 17  1  0
 15 10  1  0
M  END
>  <HIPPO Compound ID>  (32) 
25412

>  <fragmenstein_outcome>  (32) 
acceptable

>  <smiles>  (32) 
C70598-P2

>  <HIPPO Pose ID>  (32) 
25575

>  <fragmenstein_runtime>  (32) 
1.096338

>  <ref_pdb>  (32) 
30

>  <Energy>  (32) 
21.746536

>  <scratch_subdir>  (32) 
/opt/xchem-fragalysis-2/maxwin/BulkDock/SCRATCH/511015/C70598-P2

>  <inchikey>  (32) 
FQGGMTBVNIKLCQ-UHFFFAOYSA-N

>  <fragmenstein_error>  (32) 


>  <tags>  (32) 
{'fragmenstein_placed', 'openbind_d68ev3c_c1_knitwork_pure'}

>  <alias>  (32) 
c1cncc(CN(c2nc3ccccc3o2)C2CC2)c1

>  <fragmenstein_mode>  (32) 
expansion

$$$$
c1cncc([C@@H](Nc2nc3ccccc3o2)C2CC2)c1
     RDKit          3D

 20 23  0  0  0  0  0  0  0  0999 V2000
  -11.9077  -25.9836    9.1485 C   0  0  0  0  0  0  0  0  0  0  0  0
  -13.0422  -25.1985    9.1877 C   0  0  0  0  0  0  0  0  0  0  0  0
  -13.4928  -24.4951    8.1322 N   0  0  0  0  0  0  0  0  0  0  0  0
  -12.7667  -24.5782    6.9903 C   0  0  0  0  0  0  0  0  0  0  0  0
  -11.5968  -25.3257    6.8236 C   0  0  0  0  0  0  0  0  0  0  0  0
  -10.8366  -25.1651    5.5011 C   0  0  1  0  0  0  0  0  0  0  0  0
  -10.1200  -23.8820    5.3416 N   0  0  0  0  0  0  0  0  0  0  0  0
   -9.6322  -23.2540    6.4251 C   0  0  0  0  0  0  0  0  0  0  0  0
   -9.7273  -21.9742    6.7080 N   0  0  0  0  0  0  0  0  0  0  0  0
   -9.3159  -21.9159    8.0155 C   0  0  0  0  0  0  0  0  0  0  0  0
   -9.2299  -20.8491    8.9095 C   0  0  0  0  0  0  0  0  0  0  0  0
   -8.7578  -21.1193   10.2051 C   0  0  0  0  0  0  0  0  0  0  0  0
   -8.4118  -22.4140   10.6061 C   0  0  0  0  0  0  0  0  0  0  0  0
   -8.4888  -23.4885    9.7207 C   0  0  0  0  0  0  0  0  0  0  0  0
   -8.9284  -23.1727    8.4446 C   0  0  0  0  0  0  0  0  0  0  0  0
   -9.0627  -24.0225    7.3948 O   0  0  0  0  0  0  0  0  0  0  0  0
   -9.9592  -26.2689    4.9565 C   0  0  0  0  0  0  0  0  0  0  0  0
   -8.7790  -26.8787    5.6728 C   0  0  0  0  0  0  0  0  0  0  0  0
   -9.9962  -27.7199    5.3734 C   0  0  0  0  0  0  0  0  0  0  0  0
  -11.1833  -26.0425    7.9555 C   0  0  0  0  0  0  0  0  0  0  0  0
  1  2  2  0
  2  3  1  0
  3  4  2  0
  4  5  1  0
  5  6  1  0
  6  7  1  1
  7  8  1  0
  8  9  2  0
  9 10  1  0
 10 11  2  0
 11 12  1  0
 12 13  2  0
 13 14  1  0
 14 15  2  0
 15 16  1  0
  6 17  1  0
 17 18  1  0
 18 19  1  0
  5 20  2  0
 20  1  1  0
 16  8  1  0
 19 17  1  0
 15 10  1  0
M  END
>  <HIPPO Compound ID>  (33) 
12873

>  <fragmenstein_outcome>  (33) 
acceptable

>  <smiles>  (33) 
C70602-P2

>  <HIPPO Pose ID>  (33) 
25579

>  <fragmenstein_runtime>  (33) 
1.214787

>  <ref_pdb>  (33) 
30

>  <Energy>  (33) 
15.226862

>  <scratch_subdir>  (33) 
/opt/xchem-fragalysis-2/maxwin/BulkDock/SCRATCH/511015/C70602-P2

>  <inchikey>  (33) 
PDEDAXUEKHBRAY-UHFFFAOYSA-N

>  <fragmenstein_error>  (33) 


>  <tags>  (33) 
{'fragmenstein_placed', 'openbind_d68ev3c_c1_knitwork_pure'}

>  <alias>  (33) 
c1cncc([C@@H](Nc2nc3ccccc3o2)C2CC2)c1

>  <fragmenstein_mode>  (33) 
expansion

$$$$
O=C(CSc1nc2cc(CO)ccc2o1)NCc1cccnc1
     RDKit          3D

 23 25  0  0  0  0  0  0  0  0999 V2000
  -11.4291  -25.5569    2.9465 O   0  0  0  0  0  0  0  0  0  0  0  0
  -10.6504  -25.4831    3.8131 C   0  0  0  0  0  0  0  0  0  0  0  0
   -9.2950  -24.7966    3.6277 C   0  0  0  0  0  0  0  0  0  0  0  0
   -9.4556  -23.0076    3.8345 S   0  0  0  0  0  0  0  0  0  0  0  0
   -9.3689  -22.8320    5.5547 C   0  0  0  0  0  0  0  0  0  0  0  0
   -9.5371  -21.6705    6.1519 N   0  0  0  0  0  0  0  0  0  0  0  0
   -9.2868  -21.9412    7.4669 C   0  0  0  0  0  0  0  0  0  0  0  0
   -9.2359  -21.1000    8.5753 C   0  0  0  0  0  0  0  0  0  0  0  0
   -8.8521  -21.6719    9.7991 C   0  0  0  0  0  0  0  0  0  0  0  0
   -8.8196  -20.8349   11.0279 C   0  0  0  0  0  0  0  0  0  0  0  0
   -7.5705  -20.3041   11.3745 O   0  0  0  0  0  0  0  0  0  0  0  0
   -8.5541  -23.0422    9.9111 C   0  0  0  0  0  0  0  0  0  0  0  0
   -8.6279  -23.8938    8.8127 C   0  0  0  0  0  0  0  0  0  0  0  0
   -8.9844  -23.2827    7.6219 C   0  0  0  0  0  0  0  0  0  0  0  0
   -9.0485  -23.8663    6.3951 O   0  0  0  0  0  0  0  0  0  0  0  0
  -10.7025  -26.0375    5.2602 N   0  0  0  0  0  0  0  0  0  0  0  0
  -11.7591  -26.7114    5.9637 C   0  0  0  0  0  0  0  0  0  0  0  0
  -11.9679  -26.1240    7.3242 C   0  0  0  0  0  0  0  0  0  0  0  0
  -11.5695  -26.7898    8.4865 C   0  0  0  0  0  0  0  0  0  0  0  0
  -11.7648  -26.1885    9.7251 C   0  0  0  0  0  0  0  0  0  0  0  0
  -12.3484  -24.9343    9.7593 C   0  0  0  0  0  0  0  0  0  0  0  0
  -12.7432  -24.2551    8.6618 N   0  0  0  0  0  0  0  0  0  0  0  0
  -12.5483  -24.8669    7.4710 C   0  0  0  0  0  0  0  0  0  0  0  0
  1  2  2  0
  2  3  1  0
  3  4  1  0
  4  5  1  0
  5  6  2  0
  6  7  1  0
  7  8  2  0
  8  9  1  0
  9 10  1  0
 10 11  1  0
  9 12  2  0
 12 13  1  0
 13 14  2  0
 14 15  1  0
  2 16  1  0
 16 17  1  0
 17 18  1  0
 18 19  2  0
 19 20  1  0
 20 21  2  0
 21 22  1  0
 22 23  2  0
 15  5  1  0
 23 18  1  0
 14  7  1  0
M  END
>  <HIPPO Compound ID>  (34) 
5010

>  <fragmenstein_outcome>  (34) 
acceptable

>  <smiles>  (34) 
C70609-P2

>  <HIPPO Pose ID>  (34) 
25583

>  <fragmenstein_runtime>  (34) 
2.16791

>  <ref_pdb>  (34) 
30

>  <Energy>  (34) 
24.36329

>  <scratch_subdir>  (34) 
/opt/xchem-fragalysis-2/maxwin/BulkDock/SCRATCH/511015/C70609-P2

>  <inchikey>  (34) 
WYZBNBVUTXHZAX-UHFFFAOYSA-N

>  <fragmenstein_error>  (34) 


>  <tags>  (34) 
{'fragmenstein_placed', 'openbind_d68ev3c_c1_knitwork_pure'}

>  <alias>  (34) 
O=C(CSc1nc2cc(CO)ccc2o1)NCc1cccnc1

>  <fragmenstein_mode>  (34) 
expansion

$$$$
O=C(CCC1CCNCC1)c1ccc2ncoc2c1
     RDKit          3D

 19 21  0  0  0  0  0  0  0  0999 V2000
   -9.7881  -22.5584   12.2356 O   0  0  0  0  0  0  0  0  0  0  0  0
   -9.4696  -23.3120   11.3213 C   0  0  0  0  0  0  0  0  0  0  0  0
   -9.4010  -24.8018   11.5406 C   0  0  0  0  0  0  0  0  0  0  0  0
  -10.7920  -25.4267   11.5916 C   0  0  0  0  0  0  0  0  0  0  0  0
  -11.4574  -25.4192   12.9833 C   0  0  0  0  0  0  0  0  0  0  0  0
  -12.8493  -26.0591   12.8933 C   0  0  0  0  0  0  0  0  0  0  0  0
  -13.5122  -26.1739   14.2666 C   0  0  0  0  0  0  0  0  0  0  0  0
  -12.6593  -26.6972   15.3355 N   0  0  0  0  0  0  0  0  0  0  0  0
  -11.3696  -27.1784   14.8581 C   0  0  0  0  0  0  0  0  0  0  0  0
  -10.6062  -26.1280   14.0554 C   0  0  0  0  0  0  0  0  0  0  0  0
   -9.2636  -22.7597    9.9528 C   0  0  0  0  0  0  0  0  0  0  0  0
   -9.0877  -21.3720    9.8068 C   0  0  0  0  0  0  0  0  0  0  0  0
   -9.1460  -20.7626    8.5439 C   0  0  0  0  0  0  0  0  0  0  0  0
   -9.2944  -21.5795    7.4229 C   0  0  0  0  0  0  0  0  0  0  0  0
   -9.3378  -21.2833    6.0864 N   0  0  0  0  0  0  0  0  0  0  0  0
   -9.4542  -22.4640    5.5200 C   0  0  0  0  0  0  0  0  0  0  0  0
   -9.4850  -23.5256    6.3740 O   0  0  0  0  0  0  0  0  0  0  0  0
   -9.3835  -22.9468    7.6038 C   0  0  0  0  0  0  0  0  0  0  0  0
   -9.3879  -23.5914    8.8305 C   0  0  0  0  0  0  0  0  0  0  0  0
  1  2  2  0
  2  3  1  0
  3  4  1  0
  4  5  1  0
  5  6  1  0
  6  7  1  0
  7  8  1  0
  8  9  1  0
  9 10  1  0
  2 11  1  0
 11 12  2  0
 12 13  1  0
 13 14  2  0
 14 15  1  0
 15 16  2  0
 16 17  1  0
 17 18  1  0
 18 19  2  0
 10  5  1  0
 19 11  1  0
 18 14  1  0
M  END
>  <HIPPO Compound ID>  (35) 
6392

>  <fragmenstein_outcome>  (35) 
acceptable

>  <smiles>  (35) 
C70627-P2

>  <HIPPO Pose ID>  (35) 
25606

>  <fragmenstein_runtime>  (35) 
1.387085

>  <ref_pdb>  (35) 
30

>  <Energy>  (35) 
44.731728

>  <scratch_subdir>  (35) 
/opt/xchem-fragalysis-2/maxwin/BulkDock/SCRATCH/511015/C70627-P2

>  <inchikey>  (35) 
CAKKAVCBHWACIY-UHFFFAOYSA-N

>  <fragmenstein_error>  (35) 


>  <tags>  (35) 
{'fragmenstein_placed', 'openbind_d68ev3c_c1_knitwork_pure'}

>  <alias>  (35) 
O=C(CCC1CCNCC1)c1ccc2ncoc2c1

>  <fragmenstein_mode>  (35) 
expansion

$$$$
C1CCN(C2CCOCC2)CC1
     RDKit          3D

 12 13  0  0  0  0  0  0  0  0999 V2000
  -10.5235  -27.1327   14.4542 C   0  0  0  0  0  0  0  0  0  0  0  0
  -10.4454  -26.1224   13.3094 C   0  0  0  0  0  0  0  0  0  0  0  0
  -11.7076  -25.2692   13.1401 C   0  0  0  0  0  0  0  0  0  0  0  0
  -12.9136  -26.0411   13.4200 N   0  0  0  0  0  0  0  0  0  0  0  0
  -14.1926  -25.3947   13.0729 C   0  0  0  0  0  0  0  0  0  0  0  0
  -14.4625  -25.4468   11.5639 C   0  0  0  0  0  0  0  0  0  0  0  0
  -15.6015  -24.5102   11.1685 C   0  0  0  0  0  0  0  0  0  0  0  0
  -16.4573  -24.2376   12.2724 O   0  0  0  0  0  0  0  0  0  0  0  0
  -15.8133  -23.4962   13.3085 C   0  0  0  0  0  0  0  0  0  0  0  0
  -14.3839  -23.9635   13.5812 C   0  0  0  0  0  0  0  0  0  0  0  0
  -12.9591  -26.5892   14.7838 C   0  0  0  0  0  0  0  0  0  0  0  0
  -11.5975  -26.7568   15.4563 C   0  0  0  0  0  0  0  0  0  0  0  0
  1  2  1  0
  2  3  1  0
  3  4  1  0
  4  5  1  0
  5  6  1  0
  6  7  1  0
  7  8  1  0
  8  9  1  0
  9 10  1  0
  4 11  1  0
 11 12  1  0
 12  1  1  0
 10  5  1  0
M  END
>  <HIPPO Compound ID>  (36) 
29009

>  <fragmenstein_outcome>  (36) 
acceptable

>  <smiles>  (36) 
C20510-P112

>  <HIPPO Pose ID>  (36) 
26037

>  <fragmenstein_runtime>  (36) 
1.192476

>  <ref_pdb>  (36) 
30

>  <Energy>  (36) 
18.618947

>  <scratch_subdir>  (36) 
/opt/xchem-fragalysis-2/maxwin/BulkDock/SCRATCH/511015/C20510-P112

>  <inchikey>  (36) 
YRMKFHALKIIQFI-UHFFFAOYSA-N

>  <fragmenstein_error>  (36) 


>  <tags>  (36) 
{'fragmenstein_placed', 'openbind_d68ev3c_c1_knitwork_pure'}

>  <alias>  (36) 
C1CCN(C2CCOCC2)CC1

>  <fragmenstein_mode>  (36) 
expansion

$$$$
C1CCN([C@@H]2CCCOC2)CC1
     RDKit          3D

 12 13  0  0  0  0  0  0  0  0999 V2000
  -10.5578  -27.1788   14.4909 C   0  0  0  0  0  0  0  0  0  0  0  0
  -10.4407  -26.1799   13.3395 C   0  0  0  0  0  0  0  0  0  0  0  0
  -11.6831  -25.3039   13.1444 C   0  0  0  0  0  0  0  0  0  0  0  0
  -12.9080  -26.0511   13.4170 N   0  0  0  0  0  0  0  0  0  0  0  0
  -14.1632  -25.3685   13.0488 C   0  0  2  0  0  0  0  0  0  0  0  0
  -14.4283  -25.4543   11.5385 C   0  0  0  0  0  0  0  0  0  0  0  0
  -15.5594  -24.5173   11.1078 C   0  0  0  0  0  0  0  0  0  0  0  0
  -16.4040  -24.0525   12.2855 C   0  0  0  0  0  0  0  0  0  0  0  0
  -15.6342  -23.3702   13.2731 O   0  0  0  0  0  0  0  0  0  0  0  0
  -14.3308  -23.9097   13.5129 C   0  0  0  0  0  0  0  0  0  0  0  0
  -12.9815  -26.5647   14.7937 C   0  0  0  0  0  0  0  0  0  0  0  0
  -11.6302  -26.7639   15.4795 C   0  0  0  0  0  0  0  0  0  0  0  0
  1  2  1  0
  2  3  1  0
  3  4  1  0
  5  4  1  6
  5  6  1  0
  6  7  1  0
  7  8  1  0
  8  9  1  0
  9 10  1  0
  4 11  1  0
 11 12  1  0
 12  1  1  0
 10  5  1  0
M  END
>  <HIPPO Compound ID>  (37) 
7931

>  <fragmenstein_outcome>  (37) 
acceptable

>  <smiles>  (37) 
C20511-P112

>  <HIPPO Pose ID>  (37) 
26038

>  <fragmenstein_runtime>  (37) 
1.281191

>  <ref_pdb>  (37) 
30

>  <Energy>  (37) 
41.463309

>  <scratch_subdir>  (37) 
/opt/xchem-fragalysis-2/maxwin/BulkDock/SCRATCH/511015/C20511-P112

>  <inchikey>  (37) 
KEOQHHKVDKQUHJ-UHFFFAOYSA-N

>  <fragmenstein_error>  (37) 


>  <tags>  (37) 
{'fragmenstein_placed', 'openbind_d68ev3c_c1_knitwork_pure'}

>  <alias>  (37) 
C1CCN([C@@H]2CCCOC2)CC1

>  <fragmenstein_mode>  (37) 
expansion

$$$$
CC[C@H](N[C@H](C)c1ccc(N2CCCCC2)cc1)C1CCOCC1
     RDKit          3D

 24 26  0  0  0  0  0  0  0  0999 V2000
  -22.4764  -22.8397   12.1704 C   0  0  0  0  0  0  0  0  0  0  0  0
  -21.1664  -23.5921   12.3625 C   0  0  0  0  0  0  0  0  0  0  0  0
  -19.9760  -22.6826   12.7456 C   0  0  2  0  0  0  0  0  0  0  0  0
  -18.7526  -23.4994   12.7992 N   0  0  0  0  0  0  0  0  0  0  0  0
  -17.7282  -23.1320   11.8127 C   0  0  2  0  0  0  0  0  0  0  0  0
  -18.1914  -23.3543   10.3635 C   0  0  0  0  0  0  0  0  0  0  0  0
  -16.4398  -23.8809   12.1394 C   0  0  0  0  0  0  0  0  0  0  0  0
  -16.1008  -25.1068   11.5547 C   0  0  0  0  0  0  0  0  0  0  0  0
  -14.8977  -25.7445   11.8743 C   0  0  0  0  0  0  0  0  0  0  0  0
  -13.9941  -25.1854   12.7819 C   0  0  0  0  0  0  0  0  0  0  0  0
  -12.8300  -25.8933   13.0817 N   0  0  0  0  0  0  0  0  0  0  0  0
  -11.5642  -25.1612   13.0679 C   0  0  0  0  0  0  0  0  0  0  0  0
  -10.4205  -26.1063   13.4213 C   0  0  0  0  0  0  0  0  0  0  0  0
  -10.6042  -26.7604   14.7919 C   0  0  0  0  0  0  0  0  0  0  0  0
  -12.0586  -26.7814   15.2569 C   0  0  0  0  0  0  0  0  0  0  0  0
  -13.0233  -26.9460   14.0879 C   0  0  0  0  0  0  0  0  0  0  0  0
  -14.3461  -23.9799   13.3897 C   0  0  0  0  0  0  0  0  0  0  0  0
  -15.5536  -23.3408   13.0815 C   0  0  0  0  0  0  0  0  0  0  0  0
  -20.1865  -21.9304   14.0864 C   0  0  0  0  0  0  0  0  0  0  0  0
  -20.4204  -22.8495   15.3018 C   0  0  0  0  0  0  0  0  0  0  0  0
  -20.1026  -22.1483   16.6220 C   0  0  0  0  0  0  0  0  0  0  0  0
  -20.3403  -20.7493   16.4976 O   0  0  0  0  0  0  0  0  0  0  0  0
  -19.3689  -20.1273   15.6501 C   0  0  0  0  0  0  0  0  0  0  0  0
  -19.0459  -20.9530   14.4029 C   0  0  0  0  0  0  0  0  0  0  0  0
  1  2  1  0
  3  2  1  1
  3  4  1  0
  4  5  1  0
  5  6  1  6
  5  7  1  0
  7  8  2  0
  8  9  1  0
  9 10  2  0
 10 11  1  0
 11 12  1  0
 12 13  1  0
 13 14  1  0
 14 15  1  0
 15 16  1  0
 10 17  1  0
 17 18  2  0
  3 19  1  0
 19 20  1  0
 20 21  1  0
 21 22  1  0
 22 23  1  0
 23 24  1  0
 18  7  1  0
 24 19  1  0
 16 11  1  0
M  END
>  <HIPPO Compound ID>  (38) 
12802

>  <fragmenstein_outcome>  (38) 
acceptable

>  <smiles>  (38) 
C20545-P112

>  <HIPPO Pose ID>  (38) 
26043

>  <fragmenstein_runtime>  (38) 
5.208129

>  <ref_pdb>  (38) 
30

>  <Energy>  (38) 
43.873099

>  <scratch_subdir>  (38) 
/opt/xchem-fragalysis-2/maxwin/BulkDock/SCRATCH/511015/C20545-P112

>  <inchikey>  (38) 
ZYBCBNXEYXUYED-UHFFFAOYSA-N

>  <fragmenstein_error>  (38) 


>  <tags>  (38) 
{'fragmenstein_placed', 'openbind_d68ev3c_c1_knitwork_pure'}

>  <alias>  (38) 
CC[C@H](N[C@H](C)c1ccc(N2CCCCC2)cc1)C1CCOCC1

>  <fragmenstein_mode>  (38) 
expansion

$$$$
CC(C)[C@H](CNC(=O)c1cccnc1)NCc1cncs1
     RDKit          3D

 21 22  0  0  0  0  0  0  0  0999 V2000
  -14.2260  -28.9492   25.5164 C   0  0  0  0  0  0  0  0  0  0  0  0
  -13.0889  -28.7677   26.5352 C   0  0  0  0  0  0  0  0  0  0  0  0
  -13.6056  -29.2501   27.8800 C   0  0  0  0  0  0  0  0  0  0  0  0
  -12.5344  -27.3078   26.4265 C   0  0  2  0  0  0  0  0  0  0  0  0
  -11.5627  -27.1850   25.2220 C   0  0  0  0  0  0  0  0  0  0  0  0
  -10.7645  -28.3308   24.8608 N   0  0  0  0  0  0  0  0  0  0  0  0
   -9.3986  -28.8022   25.3869 C   0  0  0  0  0  0  0  0  0  0  0  0
   -8.6738  -28.3036   26.1322 O   0  0  0  0  0  0  0  0  0  0  0  0
   -8.8360  -30.1370   24.7810 C   0  0  0  0  0  0  0  0  0  0  0  0
   -9.2670  -31.3497   25.3792 C   0  0  0  0  0  0  0  0  0  0  0  0
   -9.2490  -32.5763   24.5995 C   0  0  0  0  0  0  0  0  0  0  0  0
   -8.6273  -32.6170   23.3615 C   0  0  0  0  0  0  0  0  0  0  0  0
   -8.1532  -31.5143   22.7887 N   0  0  0  0  0  0  0  0  0  0  0  0
   -8.2939  -30.3229   23.4723 C   0  0  0  0  0  0  0  0  0  0  0  0
  -12.0022  -26.6904   27.6413 N   0  0  0  0  0  0  0  0  0  0  0  0
  -11.5115  -25.3127   27.4218 C   0  0  0  0  0  0  0  0  0  0  0  0
  -11.5881  -24.4349   28.6168 C   0  0  0  0  0  0  0  0  0  0  0  0
  -11.7382  -23.0594   28.6434 C   0  0  0  0  0  0  0  0  0  0  0  0
  -11.8619  -22.4927   29.8945 N   0  0  0  0  0  0  0  0  0  0  0  0
  -11.8015  -23.4471   30.7978 C   0  0  0  0  0  0  0  0  0  0  0  0
  -11.4397  -25.0168   30.2195 S   0  0  0  0  0  0  0  0  0  0  0  0
  1  2  1  0
  2  3  1  0
  2  4  1  0
  4  5  1  6
  5  6  1  0
  6  7  1  0
  7  8  2  0
  7  9  1  0
  9 10  2  0
 10 11  1  0
 11 12  2  0
 12 13  1  0
 13 14  2  0
  4 15  1  0
 15 16  1  0
 16 17  1  0
 17 18  2  0
 18 19  1  0
 19 20  2  0
 20 21  1  0
 14  9  1  0
 21 17  1  0
M  END
>  <HIPPO Compound ID>  (39) 
19520

>  <fragmenstein_outcome>  (39) 
acceptable

>  <smiles>  (39) 
C40333-P82

>  <HIPPO Pose ID>  (39) 
27499

>  <fragmenstein_runtime>  (39) 
7.962742

>  <ref_pdb>  (39) 
30

>  <Energy>  (39) 
91.362853

>  <scratch_subdir>  (39) 
/opt/xchem-fragalysis-2/maxwin/BulkDock/SCRATCH/511015/C40333-P82

>  <inchikey>  (39) 
GYHUITJVEAWABQ-UHFFFAOYSA-N

>  <fragmenstein_error>  (39) 


>  <tags>  (39) 
{'fragmenstein_placed', 'openbind_d68ev3c_c1_knitwork_pure'}

>  <alias>  (39) 
CC(C)[C@H](CNC(=O)c1cccnc1)NCc1cncs1

>  <fragmenstein_mode>  (39) 
expansion

$$$$
CC(C)(C)[C@@H](Cn1ccnc1)NCc1cncs1
     RDKit          3D

 18 19  0  0  0  0  0  0  0  0999 V2000
   15.1133    1.9036   21.2768 C   0  0  0  0  0  0  0  0  0  0  0  0
   15.6520    0.9468   20.1895 C   0  0  0  0  0  0  0  0  0  0  0  0
   17.0537    0.4837   20.6351 C   0  0  0  0  0  0  0  0  0  0  0  0
   14.7379   -0.2871   20.1798 C   0  0  0  0  0  0  0  0  0  0  0  0
   15.7352    1.7166   18.8101 C   0  0  1  0  0  0  0  0  0  0  0  0
   16.4981    0.9702   17.6775 C   0  0  0  0  0  0  0  0  0  0  0  0
   15.9996   -0.3354   17.3065 N   0  0  0  0  0  0  0  0  0  0  0  0
   16.6867   -1.5155   17.3935 C   0  0  0  0  0  0  0  0  0  0  0  0
   15.8092   -2.4709   16.9299 C   0  0  0  0  0  0  0  0  0  0  0  0
   14.6255   -1.8982   16.5460 N   0  0  0  0  0  0  0  0  0  0  0  0
   14.7744   -0.6129   16.7717 C   0  0  0  0  0  0  0  0  0  0  0  0
   14.4275    2.1856   18.2988 N   0  0  0  0  0  0  0  0  0  0  0  0
   14.5183    3.4584   17.5757 C   0  0  0  0  0  0  0  0  0  0  0  0
   13.4151    3.5859   16.5789 C   0  0  0  0  0  0  0  0  0  0  0  0
   12.2044    4.2426   16.6839 C   0  0  0  0  0  0  0  0  0  0  0  0
   11.3961    4.2119   15.5618 N   0  0  0  0  0  0  0  0  0  0  0  0
   11.9978    3.5196   14.6206 C   0  0  0  0  0  0  0  0  0  0  0  0
   13.5495    2.9034   15.0060 S   0  0  0  0  0  0  0  0  0  0  0  0
  1  2  1  0
  2  3  1  0
  2  4  1  0
  2  5  1  0
  5  6  1  6
  6  7  1  0
  7  8  1  0
  8  9  2  0
  9 10  1  0
 10 11  2  0
  5 12  1  0
 12 13  1  0
 13 14  1  0
 14 15  2  0
 15 16  1  0
 16 17  2  0
 17 18  1  0
 11  7  1  0
 18 14  1  0
M  END
>  <HIPPO Compound ID>  (40) 
28536

>  <fragmenstein_outcome>  (40) 
acceptable

>  <smiles>  (40) 
C73157-P71

>  <HIPPO Pose ID>  (40) 
28073

>  <fragmenstein_runtime>  (40) 
2.538764

>  <ref_pdb>  (40) 
30

>  <Energy>  (40) 
40.223698

>  <scratch_subdir>  (40) 
/opt/xchem-fragalysis-2/maxwin/BulkDock/SCRATCH/511015/C73157-P71

>  <inchikey>  (40) 
CZMPATPIHCNNPE-UHFFFAOYSA-N

>  <fragmenstein_error>  (40) 


>  <tags>  (40) 
{'fragmenstein_placed', 'openbind_d68ev3c_c1_knitwork_pure'}

>  <alias>  (40) 
CC(C)(C)[C@@H](Cn1ccnc1)NCc1cncs1

>  <fragmenstein_mode>  (40) 
expansion

$$$$
CN(Cc1ccc2c(c1)OCO2)S(=O)(=O)Cc1ccon1
     RDKit          3D

 21 23  0  0  0  0  0  0  0  0999 V2000
   -2.1059   -2.1863   29.6719 C   0  0  0  0  0  0  0  0  0  0  0  0
   -0.7164   -2.5201   29.9071 N   0  0  0  0  0  0  0  0  0  0  0  0
    0.2528   -1.9610   28.9399 C   0  0  0  0  0  0  0  0  0  0  0  0
   -0.0604   -0.5645   28.4319 C   0  0  0  0  0  0  0  0  0  0  0  0
    0.6742    0.5511   28.8818 C   0  0  0  0  0  0  0  0  0  0  0  0
    0.3377    1.8466   28.4659 C   0  0  0  0  0  0  0  0  0  0  0  0
   -0.7473    2.0021   27.6287 C   0  0  0  0  0  0  0  0  0  0  0  0
   -1.4643    0.9283   27.1781 C   0  0  0  0  0  0  0  0  0  0  0  0
   -1.1237   -0.3549   27.5312 C   0  0  0  0  0  0  0  0  0  0  0  0
   -2.5000    1.2842   26.3754 O   0  0  0  0  0  0  0  0  0  0  0  0
   -2.4102    2.7214   26.4447 C   0  0  0  0  0  0  0  0  0  0  0  0
   -1.2360    3.1782   27.1555 O   0  0  0  0  0  0  0  0  0  0  0  0
   -0.3123   -2.8458   31.4931 S   0  0  0  0  0  0  0  0  0  0  0  0
    1.0952   -3.1808   31.5289 O   0  0  0  0  0  0  0  0  0  0  0  0
   -1.2880   -3.8054   31.9796 O   0  0  0  0  0  0  0  0  0  0  0  0
   -0.5376   -1.2629   32.3195 C   0  0  0  0  0  0  0  0  0  0  0  0
   -1.9065   -0.9244   32.8061 C   0  0  0  0  0  0  0  0  0  0  0  0
   -3.0983   -1.6829   32.8811 C   0  0  0  0  0  0  0  0  0  0  0  0
   -3.9923   -0.8840   33.5358 C   0  0  0  0  0  0  0  0  0  0  0  0
   -3.4025    0.2908   33.8319 O   0  0  0  0  0  0  0  0  0  0  0  0
   -2.1026    0.2841   33.3623 N   0  0  0  0  0  0  0  0  0  0  0  0
  1  2  1  0
  2  3  1  0
  3  4  1  0
  4  5  2  0
  5  6  1  0
  6  7  2  0
  7  8  1  0
  8  9  2  0
  8 10  1  0
 10 11  1  0
 11 12  1  0
  2 13  1  0
 13 14  2  0
 13 15  2  0
 13 16  1  0
 16 17  1  0
 17 18  1  0
 18 19  2  0
 19 20  1  0
 20 21  1  0
  9  4  1  0
 21 17  2  0
 12  7  1  0
M  END
>  <HIPPO Compound ID>  (41) 
74593

>  <fragmenstein_outcome>  (41) 
acceptable

>  <smiles>  (41) 
C73266-P13

>  <HIPPO Pose ID>  (41) 
28173

>  <fragmenstein_runtime>  (41) 
1.835732

>  <ref_pdb>  (41) 
30

>  <Energy>  (41) 
-15.919819

>  <scratch_subdir>  (41) 
/opt/xchem-fragalysis-2/maxwin/BulkDock/SCRATCH/511015/C73266-P13

>  <inchikey>  (41) 
FLGWIYRXPJARPG-UHFFFAOYSA-N

>  <fragmenstein_error>  (41) 


>  <tags>  (41) 
{'fragmenstein_placed', 'openbind_d68ev3c_c1_knitwork_pure'}

>  <alias>  (41) 
CN(Cc1ccc2c(c1)OCO2)S(=O)(=O)Cc1ccon1

>  <fragmenstein_mode>  (41) 
expansion

$$$$
COc1cc2c(cc1CNc1ccon1)OCO2
     RDKit          3D

 18 20  0  0  0  0  0  0  0  0999 V2000
    2.8390    0.8677   29.3358 C   0  0  0  0  0  0  0  0  0  0  0  0
    1.8622   -0.1495   29.1527 O   0  0  0  0  0  0  0  0  0  0  0  0
    0.6956    0.2033   28.5191 C   0  0  0  0  0  0  0  0  0  0  0  0
    0.4344    1.4892   28.0235 C   0  0  0  0  0  0  0  0  0  0  0  0
   -0.7691    1.7116   27.3895 C   0  0  0  0  0  0  0  0  0  0  0  0
   -1.6909    0.7141   27.2151 C   0  0  0  0  0  0  0  0  0  0  0  0
   -1.4679   -0.5620   27.6796 C   0  0  0  0  0  0  0  0  0  0  0  0
   -0.2699   -0.8312   28.3748 C   0  0  0  0  0  0  0  0  0  0  0  0
   -0.0048   -2.2206   28.9278 C   0  0  0  0  0  0  0  0  0  0  0  0
   -1.1484   -2.8228   29.6387 N   0  0  0  0  0  0  0  0  0  0  0  0
   -1.5224   -2.2317   30.8031 C   0  0  0  0  0  0  0  0  0  0  0  0
   -1.5173   -2.9285   32.0263 C   0  0  0  0  0  0  0  0  0  0  0  0
   -2.0473   -2.0396   32.9242 C   0  0  0  0  0  0  0  0  0  0  0  0
   -2.3307   -0.8755   32.2954 O   0  0  0  0  0  0  0  0  0  0  0  0
   -2.0082   -0.9969   30.9616 N   0  0  0  0  0  0  0  0  0  0  0  0
   -2.7886    1.1381   26.5358 O   0  0  0  0  0  0  0  0  0  0  0  0
   -2.5103    2.5457   26.4172 C   0  0  0  0  0  0  0  0  0  0  0  0
   -1.1756    2.8926   26.8491 O   0  0  0  0  0  0  0  0  0  0  0  0
  1  2  1  0
  2  3  1  0
  3  4  2  0
  4  5  1  0
  5  6  2  0
  6  7  1  0
  7  8  2  0
  8  9  1  0
  9 10  1  0
 10 11  1  0
 11 12  1  0
 12 13  2  0
 13 14  1  0
 14 15  1  0
  6 16  1  0
 16 17  1  0
 17 18  1  0
  8  3  1  0
 15 11  2  0
 18  5  1  0
M  END
>  <HIPPO Compound ID>  (42) 
75727

>  <fragmenstein_outcome>  (42) 
acceptable

>  <smiles>  (42) 
C73288-P13

>  <HIPPO Pose ID>  (42) 
28186

>  <fragmenstein_runtime>  (42) 
1.112093

>  <ref_pdb>  (42) 
30

>  <Energy>  (42) 
-2.725747

>  <scratch_subdir>  (42) 
/opt/xchem-fragalysis-2/maxwin/BulkDock/SCRATCH/511015/C73288-P13

>  <inchikey>  (42) 
YJOSDLXJSAVZAF-UHFFFAOYSA-N

>  <fragmenstein_error>  (42) 


>  <tags>  (42) 
{'fragmenstein_placed', 'openbind_d68ev3c_c1_knitwork_pure'}

>  <alias>  (42) 
COc1cc2c(cc1CNc1ccon1)OCO2

>  <fragmenstein_mode>  (42) 
expansion

$$$$
O[C@@H](CNCc1ccon1)COCc1ccc2c(c1)OCO2
     RDKit          3D

 22 24  0  0  0  0  0  0  0  0999 V2000
   -1.4051   -0.0369   31.4001 O   0  0  0  0  0  0  0  0  0  0  0  0
   -1.2271   -1.3039   32.0493 C   0  0  1  0  0  0  0  0  0  0  0  0
   -2.6183   -1.9210   32.2564 C   0  0  0  0  0  0  0  0  0  0  0  0
   -3.5358   -0.9696   32.8992 N   0  0  0  0  0  0  0  0  0  0  0  0
   -3.6189   -1.1457   34.3518 C   0  0  0  0  0  0  0  0  0  0  0  0
   -5.0097   -0.8505   34.8216 C   0  0  0  0  0  0  0  0  0  0  0  0
   -6.1207   -0.3566   34.0991 C   0  0  0  0  0  0  0  0  0  0  0  0
   -7.1224   -0.2669   35.0255 C   0  0  0  0  0  0  0  0  0  0  0  0
   -6.6719   -0.7085   36.2204 O   0  0  0  0  0  0  0  0  0  0  0  0
   -5.3414   -1.0699   36.1040 N   0  0  0  0  0  0  0  0  0  0  0  0
   -0.3035   -2.2193   31.2354 C   0  0  0  0  0  0  0  0  0  0  0  0
   -0.9450   -2.6291   30.0271 O   0  0  0  0  0  0  0  0  0  0  0  0
   -0.1672   -2.4048   28.8498 C   0  0  0  0  0  0  0  0  0  0  0  0
   -0.3572   -0.9941   28.3527 C   0  0  0  0  0  0  0  0  0  0  0  0
    0.6507   -0.0181   28.5223 C   0  0  0  0  0  0  0  0  0  0  0  0
    0.4635    1.2945   28.0740 C   0  0  0  0  0  0  0  0  0  0  0  0
   -0.7325    1.6016   27.4628 C   0  0  0  0  0  0  0  0  0  0  0  0
   -1.7185    0.6620   27.2938 C   0  0  0  0  0  0  0  0  0  0  0  0
   -1.5646   -0.6369   27.7294 C   0  0  0  0  0  0  0  0  0  0  0  0
   -2.8071    1.1666   26.6561 O   0  0  0  0  0  0  0  0  0  0  0  0
   -2.4321    2.5502   26.5182 C   0  0  0  0  0  0  0  0  0  0  0  0
   -1.0787    2.8139   26.9533 O   0  0  0  0  0  0  0  0  0  0  0  0
  2  1  1  6
  2  3  1  0
  3  4  1  0
  4  5  1  0
  5  6  1  0
  6  7  1  0
  7  8  2  0
  8  9  1  0
  9 10  1  0
  2 11  1  0
 11 12  1  0
 12 13  1  0
 13 14  1  0
 14 15  2  0
 15 16  1  0
 16 17  2  0
 17 18  1  0
 18 19  2  0
 18 20  1  0
 20 21  1  0
 21 22  1  0
 10  6  2  0
 19 14  1  0
 22 17  1  0
M  END
>  <HIPPO Compound ID>  (43) 
22769

>  <fragmenstein_outcome>  (43) 
acceptable

>  <smiles>  (43) 
C73304-P13

>  <HIPPO Pose ID>  (43) 
28200

>  <fragmenstein_runtime>  (43) 
1.983546

>  <ref_pdb>  (43) 
30

>  <Energy>  (43) 
81.381447

>  <scratch_subdir>  (43) 
/opt/xchem-fragalysis-2/maxwin/BulkDock/SCRATCH/511015/C73304-P13

>  <inchikey>  (43) 
UNRCOQHGSNLNCV-UHFFFAOYSA-N

>  <fragmenstein_error>  (43) 


>  <tags>  (43) 
{'fragmenstein_placed', 'openbind_d68ev3c_c1_knitwork_pure'}

>  <alias>  (43) 
O[C@@H](CNCc1ccon1)COCc1ccc2c(c1)OCO2

>  <fragmenstein_mode>  (43) 
expansion

$$$$
COc1cc(CN[C@H](C)Cc2ccno2)cc2c1OCO2
     RDKit          3D

 21 23  0  0  0  0  0  0  0  0999 V2000
    2.8379    1.7553   28.1757 C   0  0  0  0  0  0  0  0  0  0  0  0
    1.5181    2.1683   27.8541 O   0  0  0  0  0  0  0  0  0  0  0  0
    0.5457    1.2106   27.8725 C   0  0  0  0  0  0  0  0  0  0  0  0
    0.6946   -0.1056   28.3300 C   0  0  0  0  0  0  0  0  0  0  0  0
   -0.3841   -1.0234   28.2862 C   0  0  0  0  0  0  0  0  0  0  0  0
   -0.2026   -2.4514   28.7310 C   0  0  0  0  0  0  0  0  0  0  0  0
   -0.7971   -2.7782   30.0370 N   0  0  0  0  0  0  0  0  0  0  0  0
   -0.0591   -2.1864   31.1660 C   0  0  2  0  0  0  0  0  0  0  0  0
    0.0789   -3.2266   32.2839 C   0  0  0  0  0  0  0  0  0  0  0  0
   -0.6534   -0.8483   31.6715 C   0  0  0  0  0  0  0  0  0  0  0  0
   -1.9793   -0.9305   32.3323 C   0  0  0  0  0  0  0  0  0  0  0  0
   -3.0770   -1.7439   32.2128 C   0  0  0  0  0  0  0  0  0  0  0  0
   -3.9640   -1.2777   33.1939 C   0  0  0  0  0  0  0  0  0  0  0  0
   -3.4834   -0.2164   33.8431 N   0  0  0  0  0  0  0  0  0  0  0  0
   -2.2222   -0.0039   33.3044 O   0  0  0  0  0  0  0  0  0  0  0  0
   -1.6235   -0.6081   27.7801 C   0  0  0  0  0  0  0  0  0  0  0  0
   -1.7444    0.6887   27.3313 C   0  0  0  0  0  0  0  0  0  0  0  0
   -0.6969    1.5765   27.3829 C   0  0  0  0  0  0  0  0  0  0  0  0
   -1.0374    2.7929   26.8667 O   0  0  0  0  0  0  0  0  0  0  0  0
   -2.4333    2.5893   26.5675 C   0  0  0  0  0  0  0  0  0  0  0  0
   -2.8577    1.2301   26.7696 O   0  0  0  0  0  0  0  0  0  0  0  0
  1  2  1  0
  2  3  1  0
  3  4  2  0
  4  5  1  0
  5  6  1  0
  6  7  1  0
  7  8  1  0
  8  9  1  1
  8 10  1  0
 10 11  1  0
 11 12  2  0
 12 13  1  0
 13 14  2  0
 14 15  1  0
  5 16  2  0
 16 17  1  0
 17 18  2  0
 18 19  1  0
 19 20  1  0
 20 21  1  0
 18  3  1  0
 15 11  1  0
 21 17  1  0
M  END
>  <HIPPO Compound ID>  (44) 
58294

>  <fragmenstein_outcome>  (44) 
acceptable

>  <smiles>  (44) 
C73310-P13

>  <HIPPO Pose ID>  (44) 
28206

>  <fragmenstein_runtime>  (44) 
2.51638

>  <ref_pdb>  (44) 
30

>  <Energy>  (44) 
45.208408

>  <scratch_subdir>  (44) 
/opt/xchem-fragalysis-2/maxwin/BulkDock/SCRATCH/511015/C73310-P13

>  <inchikey>  (44) 
HZYHCKDMFITQJT-UHFFFAOYSA-N

>  <fragmenstein_error>  (44) 


>  <tags>  (44) 
{'fragmenstein_placed', 'openbind_d68ev3c_c1_knitwork_pure'}

>  <alias>  (44) 
COc1cc(CN[C@H](C)Cc2ccno2)cc2c1OCO2

>  <fragmenstein_mode>  (44) 
expansion

$$$$
CS(=O)(=O)C[C@H](O)c1ccccn1
     RDKit          3D

 13 13  0  0  0  0  0  0  0  0999 V2000
   13.7742    1.4323   11.6456 C   0  0  0  0  0  0  0  0  0  0  0  0
   15.0127    1.7005   12.8886 S   0  0  0  0  0  0  0  0  0  0  0  0
   16.2935    1.4814   12.2410 O   0  0  0  0  0  0  0  0  0  0  0  0
   14.7185    2.9676   13.5248 O   0  0  0  0  0  0  0  0  0  0  0  0
   14.7587    0.3631   14.0396 C   0  0  0  0  0  0  0  0  0  0  0  0
   13.4792    0.5328   14.8437 C   0  0  2  0  0  0  0  0  0  0  0  0
   13.7492    1.3183   16.0102 O   0  0  0  0  0  0  0  0  0  0  0  0
   12.9821   -0.8183   15.3154 C   0  0  0  0  0  0  0  0  0  0  0  0
   11.9450   -1.4673   14.6593 C   0  0  0  0  0  0  0  0  0  0  0  0
   11.5713   -2.7316   15.0983 C   0  0  0  0  0  0  0  0  0  0  0  0
   12.2385   -3.3128   16.1685 C   0  0  0  0  0  0  0  0  0  0  0  0
   13.2459   -2.5916   16.7799 C   0  0  0  0  0  0  0  0  0  0  0  0
   13.6248   -1.3553   16.3870 N   0  0  0  0  0  0  0  0  0  0  0  0
  1  2  1  0
  2  3  2  0
  2  4  2  0
  2  5  1  0
  5  6  1  0
  6  7  1  1
  6  8  1  0
  8  9  2  0
  9 10  1  0
 10 11  2  0
 11 12  1  0
 12 13  2  0
 13  8  1  0
M  END
>  <HIPPO Compound ID>  (45) 
75318

>  <fragmenstein_outcome>  (45) 
acceptable

>  <smiles>  (45) 
C37761-P111

>  <HIPPO Pose ID>  (45) 
28892

>  <fragmenstein_runtime>  (45) 
7.93556

>  <ref_pdb>  (45) 
30

>  <Energy>  (45) 
18.610395

>  <scratch_subdir>  (45) 
/opt/xchem-fragalysis-2/maxwin/BulkDock/SCRATCH/511015/C37761-P111

>  <inchikey>  (45) 
HHXKAULJATZKPA-UHFFFAOYSA-N

>  <fragmenstein_error>  (45) 


>  <tags>  (45) 
{'fragmenstein_placed', 'openbind_d68ev3c_c1_knitwork_pure'}

>  <alias>  (45) 
CS(=O)(=O)C[C@H](O)c1ccccn1

>  <fragmenstein_mode>  (45) 
expansion

$$$$
CS(=O)(=O)CCOc1ccccn1
     RDKit          3D

 13 13  0  0  0  0  0  0  0  0999 V2000
   13.7822    1.2661   11.8411 C   0  0  0  0  0  0  0  0  0  0  0  0
   15.0440    2.0595   12.8087 S   0  0  0  0  0  0  0  0  0  0  0  0
   16.1690    2.2761   11.9163 O   0  0  0  0  0  0  0  0  0  0  0  0
   14.4208    3.1778   13.4891 O   0  0  0  0  0  0  0  0  0  0  0  0
   15.5932    0.9083   14.0383 C   0  0  0  0  0  0  0  0  0  0  0  0
   14.6274   -0.1899   14.3796 C   0  0  0  0  0  0  0  0  0  0  0  0
   13.5087    0.3021   15.1251 O   0  0  0  0  0  0  0  0  0  0  0  0
   12.8656   -0.8280   15.5887 C   0  0  0  0  0  0  0  0  0  0  0  0
   11.7608   -1.2906   14.8994 C   0  0  0  0  0  0  0  0  0  0  0  0
   11.3256   -2.5773   15.1852 C   0  0  0  0  0  0  0  0  0  0  0  0
   11.9904   -3.3310   16.1469 C   0  0  0  0  0  0  0  0  0  0  0  0
   13.0440   -2.7497   16.8271 C   0  0  0  0  0  0  0  0  0  0  0  0
   13.4935   -1.5052   16.5731 N   0  0  0  0  0  0  0  0  0  0  0  0
  1  2  1  0
  2  3  2  0
  2  4  2  0
  2  5  1  0
  5  6  1  0
  6  7  1  0
  7  8  1  0
  8  9  2  0
  9 10  1  0
 10 11  2  0
 11 12  1  0
 12 13  2  0
 13  8  1  0
M  END
>  <HIPPO Compound ID>  (46) 
28399

>  <fragmenstein_outcome>  (46) 
acceptable

>  <smiles>  (46) 
C52313-P111

>  <HIPPO Pose ID>  (46) 
28893

>  <fragmenstein_runtime>  (46) 
8.356273

>  <ref_pdb>  (46) 
30

>  <Energy>  (46) 
1.230938

>  <scratch_subdir>  (46) 
/opt/xchem-fragalysis-2/maxwin/BulkDock/SCRATCH/511015/C52313-P111

>  <inchikey>  (46) 
GWVSZEBOCYDTBF-UHFFFAOYSA-N

>  <fragmenstein_error>  (46) 


>  <tags>  (46) 
{'fragmenstein_placed', 'openbind_d68ev3c_c1_knitwork_pure'}

>  <alias>  (46) 
CS(=O)(=O)CCOc1ccccn1

>  <fragmenstein_mode>  (46) 
expansion

$$$$
c1cc2c(c(-c3nc([C@H]4CCCN4)no3)c1)CCNC2
     RDKit          3D

 20 23  0  0  0  0  0  0  0  0999 V2000
   13.2752   -3.8201   17.4828 C   0  0  0  0  0  0  0  0  0  0  0  0
   12.4511   -3.5248   16.3997 C   0  0  0  0  0  0  0  0  0  0  0  0
   12.8445   -2.5899   15.4397 C   0  0  0  0  0  0  0  0  0  0  0  0
   14.1233   -2.0107   15.5318 C   0  0  0  0  0  0  0  0  0  0  0  0
   14.9478   -2.3146   16.6342 C   0  0  0  0  0  0  0  0  0  0  0  0
   16.2298   -1.6736   16.7727 C   0  0  0  0  0  0  0  0  0  0  0  0
   17.4143   -2.0885   16.4040 N   0  0  0  0  0  0  0  0  0  0  0  0
   18.1546   -0.9375   16.5019 C   0  0  0  0  0  0  0  0  0  0  0  0
   19.5290   -0.8119   15.9173 C   0  0  1  0  0  0  0  0  0  0  0  0
   20.1459   -2.1372   15.4507 C   0  0  0  0  0  0  0  0  0  0  0  0
   20.1394   -2.0538   13.9341 C   0  0  0  0  0  0  0  0  0  0  0  0
   20.3094   -0.5714   13.6878 C   0  0  0  0  0  0  0  0  0  0  0  0
   19.4488    0.0255   14.6973 N   0  0  0  0  0  0  0  0  0  0  0  0
   17.4996    0.1052   17.0455 N   0  0  0  0  0  0  0  0  0  0  0  0
   16.1986   -0.3768   17.1872 O   0  0  0  0  0  0  0  0  0  0  0  0
   14.5225   -3.2218   17.6042 C   0  0  0  0  0  0  0  0  0  0  0  0
   14.5752   -1.0243   14.4735 C   0  0  0  0  0  0  0  0  0  0  0  0
   13.6941   -1.0606   13.2297 C   0  0  0  0  0  0  0  0  0  0  0  0
   12.2828   -1.0286   13.5961 N   0  0  0  0  0  0  0  0  0  0  0  0
   11.9096   -2.2519   14.3046 C   0  0  0  0  0  0  0  0  0  0  0  0
  1  2  2  0
  2  3  1  0
  3  4  2  0
  4  5  1  0
  5  6  1  0
  6  7  2  0
  7  8  1  0
  9  8  1  6
  9 10  1  0
 10 11  1  0
 11 12  1  0
 12 13  1  0
  8 14  2  0
 14 15  1  0
  5 16  2  0
  4 17  1  0
 17 18  1  0
 18 19  1  0
 19 20  1  0
 16  1  1  0
 20  3  1  0
 15  6  1  0
 13  9  1  0
M  END
>  <HIPPO Compound ID>  (47) 
8782

>  <fragmenstein_outcome>  (47) 
acceptable

>  <smiles>  (47) 
C34763-P124

>  <HIPPO Pose ID>  (47) 
29433

>  <fragmenstein_runtime>  (47) 
1.493002

>  <ref_pdb>  (47) 
30

>  <Energy>  (47) 
88.940102

>  <scratch_subdir>  (47) 
/opt/xchem-fragalysis-2/maxwin/BulkDock/SCRATCH/511015/C34763-P124

>  <inchikey>  (47) 
BMKNKTHZRUDFQF-UHFFFAOYSA-N

>  <fragmenstein_error>  (47) 


>  <tags>  (47) 
{'fragmenstein_placed', 'openbind_d68ev3c_c1_knitwork_pure'}

>  <alias>  (47) 
c1cc2c(c(-c3nc([C@H]4CCCN4)no3)c1)CCNC2

>  <fragmenstein_mode>  (47) 
expansion

$$$$
CCN1CCC[C@H]1COc1cccc2c1CCNC2
     RDKit          3D

 19 21  0  0  0  0  0  0  0  0999 V2000
   20.0848   -2.2969   13.9519 C   0  0  0  0  0  0  0  0  0  0  0  0
   18.9422   -1.9525   14.9056 C   0  0  0  0  0  0  0  0  0  0  0  0
   19.2606   -0.8373   15.8104 N   0  0  0  0  0  0  0  0  0  0  0  0
   19.4548    0.4380   15.1032 C   0  0  0  0  0  0  0  0  0  0  0  0
   18.0744    1.0540   15.0107 C   0  0  0  0  0  0  0  0  0  0  0  0
   17.4428    0.6996   16.3424 C   0  0  0  0  0  0  0  0  0  0  0  0
   18.2155   -0.5411   16.8393 C   0  0  1  0  0  0  0  0  0  0  0  0
   17.2519   -1.6544   17.3010 C   0  0  0  0  0  0  0  0  0  0  0  0
   16.3327   -1.8868   16.2427 O   0  0  0  0  0  0  0  0  0  0  0  0
   15.1321   -2.4552   16.5210 C   0  0  0  0  0  0  0  0  0  0  0  0
   14.8688   -3.2475   17.6316 C   0  0  0  0  0  0  0  0  0  0  0  0
   13.6191   -3.8436   17.7624 C   0  0  0  0  0  0  0  0  0  0  0  0
   12.6564   -3.6937   16.7666 C   0  0  0  0  0  0  0  0  0  0  0  0
   12.8745   -2.8300   15.6965 C   0  0  0  0  0  0  0  0  0  0  0  0
   14.1320   -2.2168   15.5653 C   0  0  0  0  0  0  0  0  0  0  0  0
   14.3721   -1.2268   14.4460 C   0  0  0  0  0  0  0  0  0  0  0  0
   13.2734   -1.2423   13.3857 C   0  0  0  0  0  0  0  0  0  0  0  0
   11.9505   -1.3146   14.0005 N   0  0  0  0  0  0  0  0  0  0  0  0
   11.7831   -2.5888   14.6875 C   0  0  0  0  0  0  0  0  0  0  0  0
  1  2  1  0
  2  3  1  0
  3  4  1  0
  4  5  1  0
  5  6  1  0
  6  7  1  0
  7  8  1  6
  8  9  1  0
  9 10  1  0
 10 11  2  0
 11 12  1  0
 12 13  2  0
 13 14  1  0
 14 15  2  0
 15 16  1  0
 16 17  1  0
 17 18  1  0
 18 19  1  0
  7  3  1  0
 15 10  1  0
 19 14  1  0
M  END
>  <HIPPO Compound ID>  (48) 
17118

>  <fragmenstein_outcome>  (48) 
acceptable

>  <smiles>  (48) 
C34768-P124

>  <HIPPO Pose ID>  (48) 
29435

>  <fragmenstein_runtime>  (48) 
3.866436

>  <ref_pdb>  (48) 
30

>  <Energy>  (48) 
66.697477

>  <scratch_subdir>  (48) 
/opt/xchem-fragalysis-2/maxwin/BulkDock/SCRATCH/511015/C34768-P124

>  <inchikey>  (48) 
LADCPSOZUNUHBR-UHFFFAOYSA-N

>  <fragmenstein_error>  (48) 


>  <tags>  (48) 
{'fragmenstein_placed', 'openbind_d68ev3c_c1_knitwork_pure'}

>  <alias>  (48) 
CCN1CCC[C@H]1COc1cccc2c1CCNC2

>  <fragmenstein_mode>  (48) 
expansion

$$$$
Cc1sccc1C=C[C@H]1CCNC1
     RDKit          3D

 13 14  0  0  0  0  0  0  0  0999 V2000
   11.1789   -0.5352   14.5476 C   0  0  0  0  0  0  0  0  0  0  0  0
   12.0077   -1.5498   15.2504 C   0  0  0  0  0  0  0  0  0  0  0  0
   11.3724   -3.1235   15.3735 S   0  0  0  0  0  0  0  0  0  0  0  0
   12.6274   -3.6263   16.4022 C   0  0  0  0  0  0  0  0  0  0  0  0
   13.5872   -2.6545   16.5535 C   0  0  0  0  0  0  0  0  0  0  0  0
   13.2499   -1.4551   15.8530 C   0  0  0  0  0  0  0  0  0  0  0  0
   14.0912   -0.2974   15.8376 C   0  0  0  0  0  0  0  0  0  0  0  0
   14.1450    0.5951   14.8366 C   0  0  0  0  0  0  0  0  0  0  0  0
   15.0350    1.8046   14.8149 C   0  0  1  0  0  0  0  0  0  0  0  0
   15.5604    2.0897   13.4088 C   0  0  0  0  0  0  0  0  0  0  0  0
   14.5893    3.1077   12.8133 C   0  0  0  0  0  0  0  0  0  0  0  0
   13.6239    3.4362   13.8609 N   0  0  0  0  0  0  0  0  0  0  0  0
   14.2493    3.0749   15.1342 C   0  0  0  0  0  0  0  0  0  0  0  0
  1  2  1  0
  2  3  1  0
  3  4  1  0
  4  5  2  0
  5  6  1  0
  6  7  1  0
  7  8  2  3
  8  9  1  0
  9 10  1  6
 10 11  1  0
 11 12  1  0
 12 13  1  0
  6  2  2  0
 13  9  1  0
M  END
>  <HIPPO Compound ID>  (49) 
30528

>  <fragmenstein_outcome>  (49) 
acceptable

>  <smiles>  (49) 
C75076-P120

>  <HIPPO Pose ID>  (49) 
30059

>  <fragmenstein_runtime>  (49) 
1.41589

>  <ref_pdb>  (49) 
30

>  <Energy>  (49) 
26.787691

>  <scratch_subdir>  (49) 
/opt/xchem-fragalysis-2/maxwin/BulkDock/SCRATCH/511015/C75076-P120

>  <inchikey>  (49) 
USRACHNLXBHGCU-UHFFFAOYSA-N

>  <fragmenstein_error>  (49) 


>  <tags>  (49) 
{'fragmenstein_placed', 'openbind_d68ev3c_c1_knitwork_pure'}

>  <alias>  (49) 
Cc1sccc1C=C[C@H]1CCNC1

>  <fragmenstein_mode>  (49) 
expansion

$$$$
Cc1sccc1CO[C@H]1CCNC1
     RDKit          3D

 13 14  0  0  0  0  0  0  0  0999 V2000
   11.2590   -0.4475   14.4882 C   0  0  0  0  0  0  0  0  0  0  0  0
   12.0015   -1.4484   15.2958 C   0  0  0  0  0  0  0  0  0  0  0  0
   11.4156   -3.0416   15.3423 S   0  0  0  0  0  0  0  0  0  0  0  0
   12.6444   -3.5317   16.4113 C   0  0  0  0  0  0  0  0  0  0  0  0
   13.5361   -2.5185   16.6702 C   0  0  0  0  0  0  0  0  0  0  0  0
   13.1795   -1.2965   16.0106 C   0  0  0  0  0  0  0  0  0  0  0  0
   13.9820   -0.0348   16.0747 C   0  0  0  0  0  0  0  0  0  0  0  0
   14.1620    0.4849   14.7599 O   0  0  0  0  0  0  0  0  0  0  0  0
   14.8796    1.7105   14.7205 C   0  0  1  0  0  0  0  0  0  0  0  0
   15.2052    2.0045   13.2630 C   0  0  0  0  0  0  0  0  0  0  0  0
   14.0421    2.8714   12.8230 C   0  0  0  0  0  0  0  0  0  0  0  0
   13.8190    3.7603   13.9693 N   0  0  0  0  0  0  0  0  0  0  0  0
   14.0017    2.8974   15.1515 C   0  0  0  0  0  0  0  0  0  0  0  0
  1  2  1  0
  2  3  1  0
  3  4  1  0
  4  5  2  0
  5  6  1  0
  6  7  1  0
  7  8  1  0
  9  8  1  6
  9 10  1  0
 10 11  1  0
 11 12  1  0
 12 13  1  0
  6  2  2  0
 13  9  1  0
M  END
>  <HIPPO Compound ID>  (50) 
30057

>  <fragmenstein_outcome>  (50) 
acceptable

>  <smiles>  (50) 
C75092-P120

>  <HIPPO Pose ID>  (50) 
30065

>  <fragmenstein_runtime>  (50) 
1.347533

>  <ref_pdb>  (50) 
30

>  <Energy>  (50) 
36.191446

>  <scratch_subdir>  (50) 
/opt/xchem-fragalysis-2/maxwin/BulkDock/SCRATCH/511015/C75092-P120

>  <inchikey>  (50) 
ZKJNTCRRFGCENV-UHFFFAOYSA-N

>  <fragmenstein_error>  (50) 


>  <tags>  (50) 
{'fragmenstein_placed', 'openbind_d68ev3c_c1_knitwork_pure'}

>  <alias>  (50) 
Cc1sccc1CO[C@H]1CCNC1

>  <fragmenstein_mode>  (50) 
expansion

$$$$
Cc1sccc1[C@H](O)[C@H]1CCNC1
     RDKit          3D

 13 14  0  0  0  0  0  0  0  0999 V2000
   10.8566   -0.4875   14.7742 C   0  0  0  0  0  0  0  0  0  0  0  0
   11.9220   -1.3166   15.3901 C   0  0  0  0  0  0  0  0  0  0  0  0
   11.6493   -2.9949   15.5025 S   0  0  0  0  0  0  0  0  0  0  0  0
   13.0987   -3.2367   16.3522 C   0  0  0  0  0  0  0  0  0  0  0  0
   13.8289   -2.0778   16.4637 C   0  0  0  0  0  0  0  0  0  0  0  0
   13.1620   -0.9400   15.8897 C   0  0  0  0  0  0  0  0  0  0  0  0
   13.7521    0.4532   15.8903 C   0  0  2  0  0  0  0  0  0  0  0  0
   13.0277    1.2848   16.7965 O   0  0  0  0  0  0  0  0  0  0  0  0
   13.7647    1.1343   14.5194 C   0  0  1  0  0  0  0  0  0  0  0  0
   14.2590    2.5793   14.5373 C   0  0  0  0  0  0  0  0  0  0  0  0
   14.6742    2.7796   13.0951 C   0  0  0  0  0  0  0  0  0  0  0  0
   15.3539    1.5271   12.7722 N   0  0  0  0  0  0  0  0  0  0  0  0
   14.6653    0.4495   13.4937 C   0  0  0  0  0  0  0  0  0  0  0  0
  1  2  1  0
  2  3  1  0
  3  4  1  0
  4  5  2  0
  5  6  1  0
  6  7  1  0
  7  8  1  1
  7  9  1  0
  9 10  1  1
 10 11  1  0
 11 12  1  0
 12 13  1  0
  6  2  2  0
 13  9  1  0
M  END
>  <HIPPO Compound ID>  (51) 
50965

>  <fragmenstein_outcome>  (51) 
acceptable

>  <smiles>  (51) 
C75093-P120

>  <HIPPO Pose ID>  (51) 
30066

>  <fragmenstein_runtime>  (51) 
1.211159

>  <ref_pdb>  (51) 
30

>  <Energy>  (51) 
12.076579

>  <scratch_subdir>  (51) 
/opt/xchem-fragalysis-2/maxwin/BulkDock/SCRATCH/511015/C75093-P120

>  <inchikey>  (51) 
CKBWZUAYXMDOCV-UHFFFAOYSA-N

>  <fragmenstein_error>  (51) 


>  <tags>  (51) 
{'fragmenstein_placed', 'openbind_d68ev3c_c1_knitwork_pure'}

>  <alias>  (51) 
Cc1sccc1[C@H](O)[C@H]1CCNC1

>  <fragmenstein_mode>  (51) 
expansion

$$$$
CCOC(=O)c1nc(C(C)C)cn1-c1cc[nH]n1
     RDKit          3D

 18 19  0  0  0  0  0  0  0  0999 V2000
  -11.3950  -22.0535   27.6917 C   0  0  0  0  0  0  0  0  0  0  0  0
  -11.3973  -23.5157   27.7937 C   0  0  0  0  0  0  0  0  0  0  0  0
  -11.2501  -23.8324   29.1655 O   0  0  0  0  0  0  0  0  0  0  0  0
  -11.9165  -23.2584   30.1894 C   0  0  0  0  0  0  0  0  0  0  0  0
  -12.7103  -22.3295   30.1750 O   0  0  0  0  0  0  0  0  0  0  0  0
  -11.5089  -23.9283   31.3752 C   0  0  0  0  0  0  0  0  0  0  0  0
  -11.5773  -23.3348   32.5357 N   0  0  0  0  0  0  0  0  0  0  0  0
  -10.9375  -24.1758   33.3797 C   0  0  0  0  0  0  0  0  0  0  0  0
  -10.8367  -23.7059   34.7599 C   0  0  0  0  0  0  0  0  0  0  0  0
  -11.3204  -24.7612   35.7267 C   0  0  0  0  0  0  0  0  0  0  0  0
   -9.4970  -23.0798   35.0233 C   0  0  0  0  0  0  0  0  0  0  0  0
  -10.4644  -25.2967   32.7333 C   0  0  0  0  0  0  0  0  0  0  0  0
  -10.9847  -25.1960   31.4694 N   0  0  0  0  0  0  0  0  0  0  0  0
  -10.8320  -26.0782   30.3727 C   0  0  0  0  0  0  0  0  0  0  0  0
  -11.8013  -26.4508   29.4095 C   0  0  0  0  0  0  0  0  0  0  0  0
  -11.0815  -26.7108   28.2722 C   0  0  0  0  0  0  0  0  0  0  0  0
   -9.7773  -26.4975   28.6104 N   0  0  0  0  0  0  0  0  0  0  0  0
   -9.5963  -26.1862   29.9017 N   0  0  0  0  0  0  0  0  0  0  0  0
  1  2  1  0
  2  3  1  0
  3  4  1  0
  4  5  2  0
  4  6  1  0
  6  7  2  0
  7  8  1  0
  8  9  1  0
  9 10  1  0
  9 11  1  0
  8 12  2  0
 12 13  1  0
 13 14  1  0
 14 15  1  0
 15 16  2  0
 16 17  1  0
 17 18  1  0
 13  6  1  0
 18 14  2  0
M  END
>  <HIPPO Compound ID>  (52) 
10267

>  <fragmenstein_outcome>  (52) 
acceptable

>  <smiles>  (52) 
C39510-P115

>  <HIPPO Pose ID>  (52) 
30344

>  <fragmenstein_runtime>  (52) 
1.567987

>  <ref_pdb>  (52) 
30

>  <Energy>  (52) 
93.162243

>  <scratch_subdir>  (52) 
/opt/xchem-fragalysis-2/maxwin/BulkDock/SCRATCH/511015/C39510-P115

>  <inchikey>  (52) 
SHPMSFNBTWJEDO-UHFFFAOYSA-N

>  <fragmenstein_error>  (52) 


>  <tags>  (52) 
{'fragmenstein_placed', 'openbind_d68ev3c_c1_knitwork_pure'}

>  <alias>  (52) 
CCOC(=O)c1nc(C(C)C)cn1-c1cc[nH]n1

>  <fragmenstein_mode>  (52) 
expansion

$$$$
COc1cccnc1[C@@H](O)CS(C)(=O)=O
     RDKit          3D

 15 15  0  0  0  0  0  0  0  0999 V2000
   10.4600    0.2412   14.1643 C   0  0  0  0  0  0  0  0  0  0  0  0
   11.5962   -0.4873   13.6972 O   0  0  0  0  0  0  0  0  0  0  0  0
   12.1096   -1.2181   14.7264 C   0  0  0  0  0  0  0  0  0  0  0  0
   11.6075   -2.4771   15.0279 C   0  0  0  0  0  0  0  0  0  0  0  0
   12.1638   -3.1869   16.0859 C   0  0  0  0  0  0  0  0  0  0  0  0
   13.1969   -2.6037   16.8012 C   0  0  0  0  0  0  0  0  0  0  0  0
   13.7193   -1.3886   16.5141 N   0  0  0  0  0  0  0  0  0  0  0  0
   13.1824   -0.7212   15.4566 C   0  0  0  0  0  0  0  0  0  0  0  0
   13.8309    0.5926   15.0677 C   0  0  1  0  0  0  0  0  0  0  0  0
   14.3334    1.2088   16.2597 O   0  0  0  0  0  0  0  0  0  0  0  0
   14.9770    0.3553   14.0977 C   0  0  0  0  0  0  0  0  0  0  0  0
   15.1118    1.6737   12.9025 S   0  0  0  0  0  0  0  0  0  0  0  0
   13.7868    1.3567   11.7645 C   0  0  0  0  0  0  0  0  0  0  0  0
   14.8352    2.9471   13.5368 O   0  0  0  0  0  0  0  0  0  0  0  0
   16.3453    1.4725   12.1641 O   0  0  0  0  0  0  0  0  0  0  0  0
  1  2  1  0
  2  3  1  0
  3  4  2  0
  4  5  1  0
  5  6  2  0
  6  7  1  0
  7  8  2  0
  8  9  1  0
  9 10  1  1
  9 11  1  0
 11 12  1  0
 12 13  1  0
 12 14  2  0
 12 15  2  0
  8  3  1  0
M  END
>  <HIPPO Compound ID>  (53) 
27662

>  <fragmenstein_outcome>  (53) 
acceptable

>  <smiles>  (53) 
C37762-P60

>  <HIPPO Pose ID>  (53) 
30600

>  <fragmenstein_runtime>  (53) 
5.795645

>  <ref_pdb>  (53) 
30

>  <Energy>  (53) 
35.064134

>  <scratch_subdir>  (53) 
/opt/xchem-fragalysis-2/maxwin/BulkDock/SCRATCH/511015/C37762-P60

>  <inchikey>  (53) 
QNOKDKCXNOEKGL-UHFFFAOYSA-N

>  <fragmenstein_error>  (53) 


>  <tags>  (53) 
{'fragmenstein_placed', 'openbind_d68ev3c_c1_knitwork_pure'}

>  <alias>  (53) 
COc1cccnc1[C@@H](O)CS(C)(=O)=O

>  <fragmenstein_mode>  (53) 
expansion

$$$$
CS(=O)(=O)C[C@H](O)c1ccncc1F
     RDKit          3D

 14 14  0  0  0  0  0  0  0  0999 V2000
   16.3962    1.5310   12.0720 C   0  0  0  0  0  0  0  0  0  0  0  0
   14.7617    1.5569   12.7653 S   0  0  0  0  0  0  0  0  0  0  0  0
   14.6571    2.7321   13.6114 O   0  0  0  0  0  0  0  0  0  0  0  0
   13.8176    1.3373   11.6872 O   0  0  0  0  0  0  0  0  0  0  0  0
   14.7457    0.1258   13.8247 C   0  0  0  0  0  0  0  0  0  0  0  0
   13.5382    0.1834   14.7517 C   0  0  2  0  0  0  0  0  0  0  0  0
   13.7437    1.1709   15.7693 O   0  0  0  0  0  0  0  0  0  0  0  0
   13.3430   -1.1304   15.4685 C   0  0  0  0  0  0  0  0  0  0  0  0
   14.1839   -1.5359   16.5136 C   0  0  0  0  0  0  0  0  0  0  0  0
   13.9389   -2.7481   17.1440 C   0  0  0  0  0  0  0  0  0  0  0  0
   12.9261   -3.5733   16.8099 N   0  0  0  0  0  0  0  0  0  0  0  0
   12.1320   -3.1760   15.7957 C   0  0  0  0  0  0  0  0  0  0  0  0
   12.3084   -1.9902   15.1106 C   0  0  0  0  0  0  0  0  0  0  0  0
   11.4768   -1.6868   14.1155 F   0  0  0  0  0  0  0  0  0  0  0  0
  1  2  1  0
  2  3  2  0
  2  4  2  0
  2  5  1  0
  5  6  1  0
  6  7  1  1
  6  8  1  0
  8  9  2  0
  9 10  1  0
 10 11  2  0
 11 12  1  0
 12 13  2  0
 13 14  1  0
 13  8  1  0
M  END
>  <HIPPO Compound ID>  (54) 
37765

>  <fragmenstein_outcome>  (54) 
acceptable

>  <smiles>  (54) 
C37765-P60

>  <HIPPO Pose ID>  (54) 
30602

>  <fragmenstein_runtime>  (54) 
22.773825

>  <ref_pdb>  (54) 
30

>  <Energy>  (54) 
12.01007

>  <scratch_subdir>  (54) 
/opt/xchem-fragalysis-2/maxwin/BulkDock/SCRATCH/511015/C37765-P60

>  <inchikey>  (54) 
HKYKKFNCDPWLTB-UHFFFAOYSA-N

>  <fragmenstein_error>  (54) 


>  <tags>  (54) 
{'fragmenstein_placed', 'openbind_d68ev3c_c1_knitwork_pure'}

>  <alias>  (54) 
CS(=O)(=O)C[C@H](O)c1ccncc1F

>  <fragmenstein_mode>  (54) 
expansion

$$$$
CS(=O)(=O)C[C@H](O)c1c(F)cncc1F
     RDKit          3D

 15 15  0  0  0  0  0  0  0  0999 V2000
   16.4438    1.6907   12.1495 C   0  0  0  0  0  0  0  0  0  0  0  0
   14.7851    1.5938   12.7773 S   0  0  0  0  0  0  0  0  0  0  0  0
   14.5480    2.7658   13.6001 O   0  0  0  0  0  0  0  0  0  0  0  0
   13.9059    1.2804   11.6676 O   0  0  0  0  0  0  0  0  0  0  0  0
   14.8420    0.1840   13.8608 C   0  0  0  0  0  0  0  0  0  0  0  0
   13.5518    0.0979   14.6704 C   0  0  2  0  0  0  0  0  0  0  0  0
   13.5229    1.1015   15.6897 O   0  0  0  0  0  0  0  0  0  0  0  0
   13.4185   -1.2207   15.3853 C   0  0  0  0  0  0  0  0  0  0  0  0
   14.3790   -1.6794   16.2880 C   0  0  0  0  0  0  0  0  0  0  0  0
   15.4972   -0.9771   16.5169 F   0  0  0  0  0  0  0  0  0  0  0  0
   14.1830   -2.8815   16.9530 C   0  0  0  0  0  0  0  0  0  0  0  0
   13.0974   -3.6658   16.7763 N   0  0  0  0  0  0  0  0  0  0  0  0
   12.1823   -3.2247   15.8897 C   0  0  0  0  0  0  0  0  0  0  0  0
   12.3025   -2.0331   15.1955 C   0  0  0  0  0  0  0  0  0  0  0  0
   11.3316   -1.6831   14.3520 F   0  0  0  0  0  0  0  0  0  0  0  0
  1  2  1  0
  2  3  2  0
  2  4  2  0
  2  5  1  0
  5  6  1  0
  6  7  1  1
  6  8  1  0
  8  9  2  0
  9 10  1  0
  9 11  1  0
 11 12  2  0
 12 13  1  0
 13 14  2  0
 14 15  1  0
 14  8  1  0
M  END
>  <HIPPO Compound ID>  (55) 
6391

>  <fragmenstein_outcome>  (55) 
acceptable

>  <smiles>  (55) 
C37768-P60

>  <HIPPO Pose ID>  (55) 
30604

>  <fragmenstein_runtime>  (55) 
22.272064

>  <ref_pdb>  (55) 
30

>  <Energy>  (55) 
12.448836

>  <scratch_subdir>  (55) 
/opt/xchem-fragalysis-2/maxwin/BulkDock/SCRATCH/511015/C37768-P60

>  <inchikey>  (55) 
ZYNGLGVMCYSXCP-UHFFFAOYSA-N

>  <fragmenstein_error>  (55) 


>  <tags>  (55) 
{'fragmenstein_placed', 'openbind_d68ev3c_c1_knitwork_pure'}

>  <alias>  (55) 
CS(=O)(=O)C[C@H](O)c1c(F)cncc1F

>  <fragmenstein_mode>  (55) 
expansion

$$$$
Cc1cccnc1[C@H](O)CS(C)(=O)=O
     RDKit          3D

 14 14  0  0  0  0  0  0  0  0999 V2000
   10.9389   -0.0092   14.3694 C   0  0  0  0  0  0  0  0  0  0  0  0
   11.8125   -1.0054   15.0711 C   0  0  0  0  0  0  0  0  0  0  0  0
   11.3151   -2.2906   15.3123 C   0  0  0  0  0  0  0  0  0  0  0  0
   12.0619   -3.2070   16.0405 C   0  0  0  0  0  0  0  0  0  0  0  0
   13.3006   -2.8163   16.4979 C   0  0  0  0  0  0  0  0  0  0  0  0
   13.8486   -1.6159   16.2222 N   0  0  0  0  0  0  0  0  0  0  0  0
   13.1202   -0.7257   15.4968 C   0  0  0  0  0  0  0  0  0  0  0  0
   13.9032    0.5031   15.0589 C   0  0  2  0  0  0  0  0  0  0  0  0
   13.0889    1.6712   15.0874 O   0  0  0  0  0  0  0  0  0  0  0  0
   14.4989    0.2293   13.6835 C   0  0  0  0  0  0  0  0  0  0  0  0
   15.1713    1.6851   12.9167 S   0  0  0  0  0  0  0  0  0  0  0  0
   13.9541    2.0649   11.6778 C   0  0  0  0  0  0  0  0  0  0  0  0
   15.1684    2.7766   13.8751 O   0  0  0  0  0  0  0  0  0  0  0  0
   16.3869    1.3182   12.2180 O   0  0  0  0  0  0  0  0  0  0  0  0
  1  2  1  0
  2  3  2  0
  3  4  1  0
  4  5  2  0
  5  6  1  0
  6  7  2  0
  7  8  1  0
  8  9  1  6
  8 10  1  0
 10 11  1  0
 11 12  1  0
 11 13  2  0
 11 14  2  0
  7  2  1  0
M  END
>  <HIPPO Compound ID>  (56) 
8130

>  <fragmenstein_outcome>  (56) 
acceptable

>  <smiles>  (56) 
C37770-P60

>  <HIPPO Pose ID>  (56) 
30606

>  <fragmenstein_runtime>  (56) 
1.095899

>  <ref_pdb>  (56) 
30

>  <Energy>  (56) 
26.759084

>  <scratch_subdir>  (56) 
/opt/xchem-fragalysis-2/maxwin/BulkDock/SCRATCH/511015/C37770-P60

>  <inchikey>  (56) 
JCMJOKGHFJUQBC-UHFFFAOYSA-N

>  <fragmenstein_error>  (56) 


>  <tags>  (56) 
{'fragmenstein_placed', 'openbind_d68ev3c_c1_knitwork_pure'}

>  <alias>  (56) 
Cc1cccnc1[C@H](O)CS(C)(=O)=O

>  <fragmenstein_mode>  (56) 
expansion

$$$$
C[C@H](CNC(=O)c1cn[nH]c1)NC(=O)c1cccn2ccnc12
     RDKit          3D

 23 25  0  0  0  0  0  0  0  0999 V2000
  -12.0127  -24.2841   25.9024 C   0  0  0  0  0  0  0  0  0  0  0  0
  -11.6220  -24.5933   27.3392 C   0  0  2  0  0  0  0  0  0  0  0  0
  -11.5434  -23.3746   28.2716 C   0  0  0  0  0  0  0  0  0  0  0  0
  -11.1012  -23.8232   29.5717 N   0  0  0  0  0  0  0  0  0  0  0  0
  -11.3015  -23.2017   30.9656 C   0  0  0  0  0  0  0  0  0  0  0  0
  -11.9192  -22.2720   31.2952 O   0  0  0  0  0  0  0  0  0  0  0  0
  -10.6161  -24.0371   31.9762 C   0  0  0  0  0  0  0  0  0  0  0  0
  -10.9211  -24.1270   33.3539 C   0  0  0  0  0  0  0  0  0  0  0  0
  -10.2839  -25.1393   33.9548 N   0  0  0  0  0  0  0  0  0  0  0  0
   -9.5320  -25.6691   32.9916 N   0  0  0  0  0  0  0  0  0  0  0  0
   -9.6640  -25.0308   31.7968 C   0  0  0  0  0  0  0  0  0  0  0  0
  -10.3528  -25.2921   27.3225 N   0  0  0  0  0  0  0  0  0  0  0  0
  -10.0411  -26.7995   27.2773 C   0  0  0  0  0  0  0  0  0  0  0  0
  -10.7546  -27.7203   27.3240 O   0  0  0  0  0  0  0  0  0  0  0  0
   -8.5502  -26.9812   27.0763 C   0  0  0  0  0  0  0  0  0  0  0  0
   -8.1234  -28.2118   26.7153 C   0  0  0  0  0  0  0  0  0  0  0  0
   -6.7262  -28.4894   26.4435 C   0  0  0  0  0  0  0  0  0  0  0  0
   -5.8143  -27.5203   26.6134 C   0  0  0  0  0  0  0  0  0  0  0  0
   -6.2519  -26.2511   26.9684 N   0  0  0  0  0  0  0  0  0  0  0  0
   -5.5267  -25.1060   27.1796 C   0  0  0  0  0  0  0  0  0  0  0  0
   -6.4426  -24.1332   27.4984 C   0  0  0  0  0  0  0  0  0  0  0  0
   -7.7151  -24.6484   27.5163 N   0  0  0  0  0  0  0  0  0  0  0  0
   -7.5874  -25.9267   27.1979 C   0  0  0  0  0  0  0  0  0  0  0  0
  2  1  1  6
  2  3  1  0
  3  4  1  0
  4  5  1  0
  5  6  2  0
  5  7  1  0
  7  8  1  0
  8  9  2  0
  9 10  1  0
 10 11  1  0
  2 12  1  0
 12 13  1  0
 13 14  2  0
 13 15  1  0
 15 16  2  0
 16 17  1  0
 17 18  2  0
 18 19  1  0
 19 20  1  0
 20 21  2  0
 21 22  1  0
 22 23  2  0
 11  7  2  0
 23 15  1  0
 23 19  1  0
M  END
>  <HIPPO Compound ID>  (57) 
39494

>  <fragmenstein_outcome>  (57) 
acceptable

>  <smiles>  (57) 
C26435-P45

>  <HIPPO Pose ID>  (57) 
31297

>  <fragmenstein_runtime>  (57) 
2.894253

>  <ref_pdb>  (57) 
97

>  <Energy>  (57) 
39.085086

>  <scratch_subdir>  (57) 
/opt/xchem-fragalysis-2/maxwin/BulkDock/SCRATCH/511016/C26435-P45

>  <inchikey>  (57) 
SODFRNXLUTTZQZ-UHFFFAOYSA-N

>  <fragmenstein_error>  (57) 


>  <tags>  (57) 
{'fragmenstein_placed', 'openbind_d68ev3c_c1_knitwork_pure'}

>  <alias>  (57) 
C[C@H](CNC(=O)c1cn[nH]c1)NC(=O)c1cccn2ccnc12

>  <fragmenstein_mode>  (57) 
expansion

$$$$
CC[C@H](CNC(=O)c1cn[nH]c1)NC(=O)c1cccn2ccnc12
     RDKit          3D

 24 26  0  0  0  0  0  0  0  0999 V2000
  -12.4342  -25.7995   25.4291 C   0  0  0  0  0  0  0  0  0  0  0  0
  -12.0251  -24.4623   26.0501 C   0  0  0  0  0  0  0  0  0  0  0  0
  -11.5663  -24.6755   27.4907 C   0  0  2  0  0  0  0  0  0  0  0  0
  -11.4889  -23.4184   28.3678 C   0  0  0  0  0  0  0  0  0  0  0  0
  -11.0580  -23.8419   29.6797 N   0  0  0  0  0  0  0  0  0  0  0  0
  -11.2820  -23.2011   31.0613 C   0  0  0  0  0  0  0  0  0  0  0  0
  -11.9134  -22.2732   31.3689 O   0  0  0  0  0  0  0  0  0  0  0  0
  -10.6175  -24.0359   32.0827 C   0  0  0  0  0  0  0  0  0  0  0  0
  -10.9694  -24.1672   33.4451 C   0  0  0  0  0  0  0  0  0  0  0  0
  -10.3407  -25.1903   34.0385 N   0  0  0  0  0  0  0  0  0  0  0  0
   -9.5460  -25.6779   33.0881 N   0  0  0  0  0  0  0  0  0  0  0  0
   -9.6403  -25.0051   31.9111 C   0  0  0  0  0  0  0  0  0  0  0  0
  -10.2827  -25.3436   27.4369 N   0  0  0  0  0  0  0  0  0  0  0  0
   -9.9325  -26.8423   27.4811 C   0  0  0  0  0  0  0  0  0  0  0  0
  -10.6148  -27.7730   27.6453 O   0  0  0  0  0  0  0  0  0  0  0  0
   -8.4670  -27.0011   27.1591 C   0  0  0  0  0  0  0  0  0  0  0  0
   -8.0545  -28.2237   26.7593 C   0  0  0  0  0  0  0  0  0  0  0  0
   -6.6695  -28.4905   26.4271 C   0  0  0  0  0  0  0  0  0  0  0  0
   -5.7541  -27.5235   26.5893 C   0  0  0  0  0  0  0  0  0  0  0  0
   -6.1835  -26.2588   26.9687 N   0  0  0  0  0  0  0  0  0  0  0  0
   -5.4559  -25.1161   27.1785 C   0  0  0  0  0  0  0  0  0  0  0  0
   -6.3670  -24.1436   27.5115 C   0  0  0  0  0  0  0  0  0  0  0  0
   -7.6383  -24.6601   27.5549 N   0  0  0  0  0  0  0  0  0  0  0  0
   -7.5122  -25.9379   27.2332 C   0  0  0  0  0  0  0  0  0  0  0  0
  1  2  1  0
  3  2  1  6
  3  4  1  0
  4  5  1  0
  5  6  1  0
  6  7  2  0
  6  8  1  0
  8  9  1  0
  9 10  2  0
 10 11  1  0
 11 12  1  0
  3 13  1  0
 13 14  1  0
 14 15  2  0
 14 16  1  0
 16 17  2  0
 17 18  1  0
 18 19  2  0
 19 20  1  0
 20 21  1  0
 21 22  2  0
 22 23  1  0
 23 24  2  0
 12  8  2  0
 24 16  1  0
 24 20  1  0
M  END
>  <HIPPO Compound ID>  (58) 
20165

>  <fragmenstein_outcome>  (58) 
acceptable

>  <smiles>  (58) 
C26452-P45

>  <HIPPO Pose ID>  (58) 
31300

>  <fragmenstein_runtime>  (58) 
5.142777

>  <ref_pdb>  (58) 
97

>  <Energy>  (58) 
41.789221

>  <scratch_subdir>  (58) 
/opt/xchem-fragalysis-2/maxwin/BulkDock/SCRATCH/511016/C26452-P45

>  <inchikey>  (58) 
VECBEHPTGMGLHE-UHFFFAOYSA-N

>  <fragmenstein_error>  (58) 


>  <tags>  (58) 
{'fragmenstein_placed', 'openbind_d68ev3c_c1_knitwork_pure'}

>  <alias>  (58) 
CC[C@H](CNC(=O)c1cn[nH]c1)NC(=O)c1cccn2ccnc12

>  <fragmenstein_mode>  (58) 
expansion

$$$$
Cc1oncc1NS(=O)(=O)c1ccc2c(c1)OCO2
     RDKit          3D

 19 21  0  0  0  0  0  0  0  0999 V2000
   -2.7011   -0.8253   31.4367 C   0  0  0  0  0  0  0  0  0  0  0  0
   -1.3042   -1.0990   31.7736 C   0  0  0  0  0  0  0  0  0  0  0  0
   -0.7564   -0.3277   32.7458 O   0  0  0  0  0  0  0  0  0  0  0  0
    0.5423   -0.7426   32.9857 N   0  0  0  0  0  0  0  0  0  0  0  0
    0.7662   -1.7181   32.1003 C   0  0  0  0  0  0  0  0  0  0  0  0
   -0.3552   -1.9512   31.2753 C   0  0  0  0  0  0  0  0  0  0  0  0
   -0.4481   -2.7974   30.1656 N   0  0  0  0  0  0  0  0  0  0  0  0
    0.6738   -2.5279   28.9107 S   0  0  0  0  0  0  0  0  0  0  0  0
    0.4185   -3.5366   27.9170 O   0  0  0  0  0  0  0  0  0  0  0  0
    1.9949   -2.3868   29.4883 O   0  0  0  0  0  0  0  0  0  0  0  0
    0.1445   -0.9366   28.3077 C   0  0  0  0  0  0  0  0  0  0  0  0
    1.0088    0.1696   28.4384 C   0  0  0  0  0  0  0  0  0  0  0  0
    0.5982    1.4363   28.0130 C   0  0  0  0  0  0  0  0  0  0  0  0
   -0.6637    1.5552   27.4713 C   0  0  0  0  0  0  0  0  0  0  0  0
   -1.5052    0.4747   27.3473 C   0  0  0  0  0  0  0  0  0  0  0  0
   -1.1360   -0.7906   27.7571 C   0  0  0  0  0  0  0  0  0  0  0  0
   -2.6904    0.8155   26.7772 O   0  0  0  0  0  0  0  0  0  0  0  0
   -2.5132    2.2322   26.5724 C   0  0  0  0  0  0  0  0  0  0  0  0
   -1.2150    2.7029   26.9950 O   0  0  0  0  0  0  0  0  0  0  0  0
  1  2  1  0
  2  3  1  0
  3  4  1  0
  4  5  2  0
  5  6  1  0
  6  7  1  0
  7  8  1  0
  8  9  2  0
  8 10  2  0
  8 11  1  0
 11 12  2  0
 12 13  1  0
 13 14  2  0
 14 15  1  0
 15 16  2  0
 15 17  1  0
 17 18  1  0
 18 19  1  0
  6  2  2  0
 16 11  1  0
 19 14  1  0
M  END
>  <HIPPO Compound ID>  (59) 
10158

>  <fragmenstein_outcome>  (59) 
acceptable

>  <smiles>  (59) 
C94323-P59

>  <HIPPO Pose ID>  (59) 
31720

>  <fragmenstein_runtime>  (59) 
2.019294

>  <ref_pdb>  (59) 
97

>  <Energy>  (59) 
-13.731002

>  <scratch_subdir>  (59) 
/opt/xchem-fragalysis-2/maxwin/BulkDock/SCRATCH/511016/C94323-P59

>  <inchikey>  (59) 
IPINBGIVFQRAAI-UHFFFAOYSA-N

>  <fragmenstein_error>  (59) 


>  <tags>  (59) 
{'fragmenstein_placed', 'openbind_d68ev3c_c1_knitwork_pure'}

>  <alias>  (59) 
Cc1oncc1NS(=O)(=O)c1ccc2c(c1)OCO2

>  <fragmenstein_mode>  (59) 
expansion

$$$$
c1csc(Cc2nc([C@@H]3CCNC3)no2)c1
     RDKit          3D

 16 18  0  0  0  0  0  0  0  0999 V2000
   11.7409   -2.7213   15.1640 C   0  0  0  0  0  0  0  0  0  0  0  0
   12.1585   -3.5536   16.1762 C   0  0  0  0  0  0  0  0  0  0  0  0
   13.7751   -3.2662   16.6349 S   0  0  0  0  0  0  0  0  0  0  0  0
   13.9834   -2.1256   15.3711 C   0  0  0  0  0  0  0  0  0  0  0  0
   15.3481   -1.5867   15.0757 C   0  0  0  0  0  0  0  0  0  0  0  0
   15.5462   -0.1969   15.5419 C   0  0  0  0  0  0  0  0  0  0  0  0
   15.9882    0.2496   16.6971 N   0  0  0  0  0  0  0  0  0  0  0  0
   16.0870    1.5985   16.4558 C   0  0  0  0  0  0  0  0  0  0  0  0
   16.5528    2.5640   17.4851 C   0  0  2  0  0  0  0  0  0  0  0  0
   17.8818    2.1676   18.1381 C   0  0  0  0  0  0  0  0  0  0  0  0
   17.5311    1.8865   19.5892 C   0  0  0  0  0  0  0  0  0  0  0  0
   16.4156    2.7960   19.8485 N   0  0  0  0  0  0  0  0  0  0  0  0
   15.5707    2.6751   18.6553 C   0  0  0  0  0  0  0  0  0  0  0  0
   15.7046    1.9859   15.2311 N   0  0  0  0  0  0  0  0  0  0  0  0
   15.3290    0.7913   14.6240 O   0  0  0  0  0  0  0  0  0  0  0  0
   12.7979   -1.8848   14.7008 C   0  0  0  0  0  0  0  0  0  0  0  0
  1  2  2  0
  2  3  1  0
  3  4  1  0
  4  5  1  0
  5  6  1  0
  6  7  2  0
  7  8  1  0
  9  8  1  6
  9 10  1  0
 10 11  1  0
 11 12  1  0
 12 13  1  0
  8 14  2  0
 14 15  1  0
  4 16  2  0
 16  1  1  0
 15  6  1  0
 13  9  1  0
M  END
>  <HIPPO Compound ID>  (60) 
95401

>  <fragmenstein_outcome>  (60) 
acceptable

>  <smiles>  (60) 
C75099-P76

>  <HIPPO Pose ID>  (60) 
32153

>  <fragmenstein_runtime>  (60) 
0.830615

>  <ref_pdb>  (60) 
97

>  <Energy>  (60) 
33.330617

>  <scratch_subdir>  (60) 
/opt/xchem-fragalysis-2/maxwin/BulkDock/SCRATCH/511016/C75099-P76

>  <inchikey>  (60) 
JLILQXGIRUVTPA-UHFFFAOYSA-N

>  <fragmenstein_error>  (60) 


>  <tags>  (60) 
{'fragmenstein_placed', 'openbind_d68ev3c_c1_knitwork_pure'}

>  <alias>  (60) 
c1csc(Cc2nc([C@@H]3CCNC3)no2)c1

>  <fragmenstein_mode>  (60) 
expansion

$$$$
C[C@H](c1nnc(-c2cccs2)o1)N1CCCC1
     RDKit          3D

 17 19  0  0  0  0  0  0  0  0999 V2000
   15.4716    2.1755   12.8310 C   0  0  0  0  0  0  0  0  0  0  0  0
   16.0282    2.1488   14.2641 C   0  0  2  0  0  0  0  0  0  0  0  0
   15.8686    0.7806   14.8724 C   0  0  0  0  0  0  0  0  0  0  0  0
   16.7400    0.0248   15.5110 N   0  0  0  0  0  0  0  0  0  0  0  0
   16.0748   -1.1473   15.8416 N   0  0  0  0  0  0  0  0  0  0  0  0
   14.8479   -1.0314   15.3689 C   0  0  0  0  0  0  0  0  0  0  0  0
   13.7872   -1.9788   15.5115 C   0  0  0  0  0  0  0  0  0  0  0  0
   12.5911   -1.9674   14.8162 C   0  0  0  0  0  0  0  0  0  0  0  0
   11.6981   -2.9806   15.2616 C   0  0  0  0  0  0  0  0  0  0  0  0
   12.2540   -3.7415   16.2650 C   0  0  0  0  0  0  0  0  0  0  0  0
   13.8334   -3.2357   16.6699 S   0  0  0  0  0  0  0  0  0  0  0  0
   14.6540    0.1731   14.7420 O   0  0  0  0  0  0  0  0  0  0  0  0
   15.5125    3.2012   15.1613 N   0  0  0  0  0  0  0  0  0  0  0  0
   16.0018    4.5444   14.8668 C   0  0  0  0  0  0  0  0  0  0  0  0
   15.1310    5.4324   15.7467 C   0  0  0  0  0  0  0  0  0  0  0  0
   13.8957    4.5968   16.0669 C   0  0  0  0  0  0  0  0  0  0  0  0
   14.0603    3.3226   15.2526 C   0  0  0  0  0  0  0  0  0  0  0  0
  2  1  1  6
  2  3  1  0
  3  4  2  0
  4  5  1  0
  5  6  2  0
  6  7  1  0
  7  8  2  0
  8  9  1  0
  9 10  2  0
 10 11  1  0
  6 12  1  0
  2 13  1  0
 13 14  1  0
 14 15  1  0
 15 16  1  0
 16 17  1  0
 12  3  1  0
 17 13  1  0
 11  7  1  0
M  END
>  <HIPPO Compound ID>  (61) 
28397

>  <fragmenstein_outcome>  (61) 
acceptable

>  <smiles>  (61) 
C26142-P76

>  <HIPPO Pose ID>  (61) 
32161

>  <fragmenstein_runtime>  (61) 
3.277835

>  <ref_pdb>  (61) 
97

>  <Energy>  (61) 
52.036954

>  <scratch_subdir>  (61) 
/opt/xchem-fragalysis-2/maxwin/BulkDock/SCRATCH/511016/C26142-P76

>  <inchikey>  (61) 
HKVXCIZGIFMHFL-UHFFFAOYSA-N

>  <fragmenstein_error>  (61) 


>  <tags>  (61) 
{'fragmenstein_placed', 'openbind_d68ev3c_c1_knitwork_pure'}

>  <alias>  (61) 
C[C@H](c1nnc(-c2cccs2)o1)N1CCCC1

>  <fragmenstein_mode>  (61) 
expansion

$$$$
C[C@H](c1nc(-c2cccs2)no1)N1CCCC1
     RDKit          3D

 17 19  0  0  0  0  0  0  0  0999 V2000
   15.4672    2.3377   12.9060 C   0  0  0  0  0  0  0  0  0  0  0  0
   16.2221    2.1257   14.2328 C   0  0  2  0  0  0  0  0  0  0  0  0
   15.8145    0.7962   14.8098 C   0  0  0  0  0  0  0  0  0  0  0  0
   14.7099    0.1120   14.6388 N   0  0  0  0  0  0  0  0  0  0  0  0
   14.9165   -0.9951   15.4148 C   0  0  0  0  0  0  0  0  0  0  0  0
   13.7846   -2.0456   15.5925 C   0  0  0  0  0  0  0  0  0  0  0  0
   12.5969   -1.9815   14.8932 C   0  0  0  0  0  0  0  0  0  0  0  0
   11.6899   -2.9970   15.3006 C   0  0  0  0  0  0  0  0  0  0  0  0
   12.2327   -3.7972   16.2820 C   0  0  0  0  0  0  0  0  0  0  0  0
   13.8241   -3.3361   16.6993 S   0  0  0  0  0  0  0  0  0  0  0  0
   16.1041   -1.0375   16.0329 N   0  0  0  0  0  0  0  0  0  0  0  0
   16.7191    0.1518   15.6119 O   0  0  0  0  0  0  0  0  0  0  0  0
   15.9761    3.2516   15.1699 N   0  0  0  0  0  0  0  0  0  0  0  0
   16.3644    4.5589   14.6315 C   0  0  0  0  0  0  0  0  0  0  0  0
   16.4092    5.4612   15.8563 C   0  0  0  0  0  0  0  0  0  0  0  0
   16.5975    4.5224   17.0388 C   0  0  0  0  0  0  0  0  0  0  0  0
   16.7257    3.1370   16.4266 C   0  0  0  0  0  0  0  0  0  0  0  0
  2  1  1  6
  2  3  1  0
  3  4  2  0
  4  5  1  0
  5  6  1  0
  6  7  2  0
  7  8  1  0
  8  9  2  0
  9 10  1  0
  5 11  2  0
 11 12  1  0
  2 13  1  0
 13 14  1  0
 14 15  1  0
 15 16  1  0
 16 17  1  0
 12  3  1  0
 17 13  1  0
 10  6  1  0
M  END
>  <HIPPO Compound ID>  (62) 
24299

>  <fragmenstein_outcome>  (62) 
acceptable

>  <smiles>  (62) 
C26145-P76

>  <HIPPO Pose ID>  (62) 
32162

>  <fragmenstein_runtime>  (62) 
8.21121

>  <ref_pdb>  (62) 
97

>  <Energy>  (62) 
47.659622

>  <scratch_subdir>  (62) 
/opt/xchem-fragalysis-2/maxwin/BulkDock/SCRATCH/511016/C26145-P76

>  <inchikey>  (62) 
HCGXSTZDESADRB-UHFFFAOYSA-N

>  <fragmenstein_error>  (62) 


>  <tags>  (62) 
{'fragmenstein_placed', 'openbind_d68ev3c_c1_knitwork_pure'}

>  <alias>  (62) 
C[C@H](c1nc(-c2cccs2)no1)N1CCCC1

>  <fragmenstein_mode>  (62) 
expansion

$$$$
CS(=O)(=O)C[C@H](O)c1cnn(C2CC2)c1
     RDKit          3D

 15 16  0  0  0  0  0  0  0  0999 V2000
   13.4990    1.9038   11.9685 C   0  0  0  0  0  0  0  0  0  0  0  0
   15.1595    1.9727   12.5873 S   0  0  0  0  0  0  0  0  0  0  0  0
   15.2535    3.1649   13.4059 O   0  0  0  0  0  0  0  0  0  0  0  0
   16.0538    1.7695   11.4639 O   0  0  0  0  0  0  0  0  0  0  0  0
   15.2790    0.5178   13.6023 C   0  0  0  0  0  0  0  0  0  0  0  0
   14.4934    0.6987   14.8779 C   0  0  2  0  0  0  0  0  0  0  0  0
   15.2956    1.4362   15.7894 O   0  0  0  0  0  0  0  0  0  0  0  0
   14.1412   -0.5934   15.4986 C   0  0  0  0  0  0  0  0  0  0  0  0
   14.9508   -1.4069   16.3266 C   0  0  0  0  0  0  0  0  0  0  0  0
   14.3122   -2.4968   16.7435 N   0  0  0  0  0  0  0  0  0  0  0  0
   13.1191   -2.3891   16.1611 N   0  0  0  0  0  0  0  0  0  0  0  0
   12.1583   -3.4740   16.1331 C   0  0  0  0  0  0  0  0  0  0  0  0
   11.6039   -3.9059   14.8057 C   0  0  0  0  0  0  0  0  0  0  0  0
   12.4975   -4.8213   15.5919 C   0  0  0  0  0  0  0  0  0  0  0  0
   12.9424   -1.2581   15.4292 C   0  0  0  0  0  0  0  0  0  0  0  0
  1  2  1  0
  2  3  2  0
  2  4  2  0
  2  5  1  0
  5  6  1  0
  6  7  1  1
  6  8  1  0
  8  9  1  0
  9 10  2  0
 10 11  1  0
 11 12  1  0
 12 13  1  0
 13 14  1  0
 11 15  1  0
 15  8  2  0
 14 12  1  0
M  END
>  <HIPPO Compound ID>  (63) 
28938

>  <fragmenstein_outcome>  (63) 
acceptable

>  <smiles>  (63) 
C10293-P112

>  <HIPPO Pose ID>  (63) 
33016

>  <fragmenstein_runtime>  (63) 
2.049182

>  <ref_pdb>  (63) 
97

>  <Energy>  (63) 
12.553153

>  <scratch_subdir>  (63) 
/opt/xchem-fragalysis-2/maxwin/BulkDock/SCRATCH/511016/C10293-P112

>  <inchikey>  (63) 
DJKYGOXCJXVGSV-UHFFFAOYSA-N

>  <fragmenstein_error>  (63) 


>  <tags>  (63) 
{'fragmenstein_placed', 'openbind_d68ev3c_c1_knitwork_pure'}

>  <alias>  (63) 
CS(=O)(=O)C[C@H](O)c1cnn(C2CC2)c1

>  <fragmenstein_mode>  (63) 
expansion

$$$$
CCNCc1nc2cccc(Cl)c2n1C(C)C
     RDKit          3D

 17 18  0  0  0  0  0  0  0  0999 V2000
   16.6153    3.2803   17.5326 C   0  0  0  0  0  0  0  0  0  0  0  0
   15.8165    2.8096   16.3260 C   0  0  0  0  0  0  0  0  0  0  0  0
   14.3899    3.0682   16.4468 N   0  0  0  0  0  0  0  0  0  0  0  0
   13.6775    2.1908   17.3764 C   0  0  0  0  0  0  0  0  0  0  0  0
   13.5144    0.7818   16.8714 C   0  0  0  0  0  0  0  0  0  0  0  0
   12.6188    0.4468   15.9679 N   0  0  0  0  0  0  0  0  0  0  0  0
   12.6144   -0.9113   15.9292 C   0  0  0  0  0  0  0  0  0  0  0  0
   11.7427   -1.7186   15.1885 C   0  0  0  0  0  0  0  0  0  0  0  0
   11.7516   -3.0876   15.4053 C   0  0  0  0  0  0  0  0  0  0  0  0
   12.6524   -3.6418   16.3074 C   0  0  0  0  0  0  0  0  0  0  0  0
   13.5927   -2.8601   16.9946 C   0  0  0  0  0  0  0  0  0  0  0  0
   14.6519   -3.7076   18.0432 Cl  0  0  0  0  0  0  0  0  0  0  0  0
   13.5489   -1.4636   16.8141 C   0  0  0  0  0  0  0  0  0  0  0  0
   14.1888   -0.3473   17.3393 N   0  0  0  0  0  0  0  0  0  0  0  0
   15.3370   -0.2900   18.2406 C   0  0  0  0  0  0  0  0  0  0  0  0
   16.6110   -0.9218   17.6777 C   0  0  0  0  0  0  0  0  0  0  0  0
   15.0187   -0.6779   19.6829 C   0  0  0  0  0  0  0  0  0  0  0  0
  1  2  1  0
  2  3  1  0
  3  4  1  0
  4  5  1  0
  5  6  2  0
  6  7  1  0
  7  8  2  0
  8  9  1  0
  9 10  2  0
 10 11  1  0
 11 12  1  0
 11 13  2  0
 13 14  1  0
 14 15  1  0
 15 16  1  0
 15 17  1  0
 14  5  1  0
 13  7  1  0
M  END
>  <HIPPO Compound ID>  (64) 
70501

>  <fragmenstein_outcome>  (64) 
acceptable

>  <smiles>  (64) 
C31014-P55

>  <HIPPO Pose ID>  (64) 
33439

>  <fragmenstein_runtime>  (64) 
1.091835

>  <ref_pdb>  (64) 
97

>  <Energy>  (64) 
28.058557

>  <scratch_subdir>  (64) 
/opt/xchem-fragalysis-2/maxwin/BulkDock/SCRATCH/511016/C31014-P55

>  <inchikey>  (64) 
ZQBFJYVZXVSNPU-UHFFFAOYSA-N

>  <fragmenstein_error>  (64) 


>  <tags>  (64) 
{'fragmenstein_placed', 'openbind_d68ev3c_c1_knitwork_pure'}

>  <alias>  (64) 
CCNCc1nc2cccc(Cl)c2n1C(C)C

>  <fragmenstein_mode>  (64) 
expansion

$$$$
CCCn1c(CNCC)nc2cccc(Cl)c21
     RDKit          3D

 17 18  0  0  0  0  0  0  0  0999 V2000
   14.9676   -1.3830   20.4785 C   0  0  0  0  0  0  0  0  0  0  0  0
   15.0932   -0.1012   19.6729 C   0  0  0  0  0  0  0  0  0  0  0  0
   15.3102   -0.3292   18.1741 C   0  0  0  0  0  0  0  0  0  0  0  0
   14.1076   -0.3202   17.3585 N   0  0  0  0  0  0  0  0  0  0  0  0
   13.4485    0.8234   16.9228 C   0  0  0  0  0  0  0  0  0  0  0  0
   13.7092    2.2236   17.4024 C   0  0  0  0  0  0  0  0  0  0  0  0
   14.3693    3.0742   16.4123 N   0  0  0  0  0  0  0  0  0  0  0  0
   15.7857    2.8022   16.2165 C   0  0  0  0  0  0  0  0  0  0  0  0
   16.6478    3.1865   17.4117 C   0  0  0  0  0  0  0  0  0  0  0  0
   12.4704    0.5083   16.0969 N   0  0  0  0  0  0  0  0  0  0  0  0
   12.4530   -0.8505   16.0289 C   0  0  0  0  0  0  0  0  0  0  0  0
   11.5578   -1.6562   15.3129 C   0  0  0  0  0  0  0  0  0  0  0  0
   11.6376   -3.0364   15.4567 C   0  0  0  0  0  0  0  0  0  0  0  0
   12.6087   -3.5991   16.2798 C   0  0  0  0  0  0  0  0  0  0  0  0
   13.5570   -2.8130   16.9454 C   0  0  0  0  0  0  0  0  0  0  0  0
   14.7532   -3.6336   17.8628 Cl  0  0  0  0  0  0  0  0  0  0  0  0
   13.4482   -1.4172   16.8298 C   0  0  0  0  0  0  0  0  0  0  0  0
  1  2  1  0
  2  3  1  0
  3  4  1  0
  4  5  1  0
  5  6  1  0
  6  7  1  0
  7  8  1  0
  8  9  1  0
  5 10  2  0
 10 11  1  0
 11 12  2  0
 12 13  1  0
 13 14  2  0
 14 15  1  0
 15 16  1  0
 15 17  2  0
 17  4  1  0
 17 11  1  0
M  END
>  <HIPPO Compound ID>  (65) 
6668

>  <fragmenstein_outcome>  (65) 
acceptable

>  <smiles>  (65) 
C31015-P55

>  <HIPPO Pose ID>  (65) 
33440

>  <fragmenstein_runtime>  (65) 
0.970413

>  <ref_pdb>  (65) 
97

>  <Energy>  (65) 
19.962107

>  <scratch_subdir>  (65) 
/opt/xchem-fragalysis-2/maxwin/BulkDock/SCRATCH/511016/C31015-P55

>  <inchikey>  (65) 
IUWFFCKRUAOHAM-UHFFFAOYSA-N

>  <fragmenstein_error>  (65) 


>  <tags>  (65) 
{'fragmenstein_placed', 'openbind_d68ev3c_c1_knitwork_pure'}

>  <alias>  (65) 
CCCn1c(CNCC)nc2cccc(Cl)c21

>  <fragmenstein_mode>  (65) 
expansion

$$$$
CCNCc1nc2cccc(Cl)c2n1C
     RDKit          3D

 15 16  0  0  0  0  0  0  0  0999 V2000
   16.6225    3.0643   17.4885 C   0  0  0  0  0  0  0  0  0  0  0  0
   15.8084    2.6691   16.2656 C   0  0  0  0  0  0  0  0  0  0  0  0
   14.4141    3.0879   16.3513 N   0  0  0  0  0  0  0  0  0  0  0  0
   13.6140    2.3378   17.3230 C   0  0  0  0  0  0  0  0  0  0  0  0
   13.3549    0.9282   16.8778 C   0  0  0  0  0  0  0  0  0  0  0  0
   12.4644    0.6074   15.9583 N   0  0  0  0  0  0  0  0  0  0  0  0
   12.4286   -0.7567   15.9267 C   0  0  0  0  0  0  0  0  0  0  0  0
   11.5789   -1.5859   15.1844 C   0  0  0  0  0  0  0  0  0  0  0  0
   11.6576   -2.9652   15.3674 C   0  0  0  0  0  0  0  0  0  0  0  0
   12.5904   -3.5081   16.2490 C   0  0  0  0  0  0  0  0  0  0  0  0
   13.4846   -2.6976   16.9547 C   0  0  0  0  0  0  0  0  0  0  0  0
   14.6447   -3.4524   17.9726 Cl  0  0  0  0  0  0  0  0  0  0  0  0
   13.3622   -1.3081   16.8024 C   0  0  0  0  0  0  0  0  0  0  0  0
   13.9576   -0.2059   17.3875 N   0  0  0  0  0  0  0  0  0  0  0  0
   14.9618   -0.2635   18.4231 C   0  0  0  0  0  0  0  0  0  0  0  0
  1  2  1  0
  2  3  1  0
  3  4  1  0
  4  5  1  0
  5  6  2  0
  6  7  1  0
  7  8  2  0
  8  9  1  0
  9 10  2  0
 10 11  1  0
 11 12  1  0
 11 13  2  0
 13 14  1  0
 14 15  1  0
 14  5  1  0
 13  7  1  0
M  END
>  <HIPPO Compound ID>  (66) 
6519

>  <fragmenstein_outcome>  (66) 
acceptable

>  <smiles>  (66) 
C31016-P55

>  <HIPPO Pose ID>  (66) 
33441

>  <fragmenstein_runtime>  (66) 
0.658956

>  <ref_pdb>  (66) 
97

>  <Energy>  (66) 
14.148133

>  <scratch_subdir>  (66) 
/opt/xchem-fragalysis-2/maxwin/BulkDock/SCRATCH/511016/C31016-P55

>  <inchikey>  (66) 
DCPFSFWYTJNDGE-UHFFFAOYSA-N

>  <fragmenstein_error>  (66) 


>  <tags>  (66) 
{'fragmenstein_placed', 'openbind_d68ev3c_c1_knitwork_pure'}

>  <alias>  (66) 
CCNCc1nc2cccc(Cl)c2n1C

>  <fragmenstein_mode>  (66) 
expansion

$$$$
CCNCc1nc2cccc(Cl)c2n1C1CC1
     RDKit          3D

 17 19  0  0  0  0  0  0  0  0999 V2000
   16.7246    2.9742   17.3104 C   0  0  0  0  0  0  0  0  0  0  0  0
   15.8161    2.6686   16.1281 C   0  0  0  0  0  0  0  0  0  0  0  0
   14.4220    3.0319   16.3618 N   0  0  0  0  0  0  0  0  0  0  0  0
   13.7689    2.2356   17.4052 C   0  0  0  0  0  0  0  0  0  0  0  0
   13.5161    0.8261   16.9719 C   0  0  0  0  0  0  0  0  0  0  0  0
   12.6258    0.4984   16.0536 N   0  0  0  0  0  0  0  0  0  0  0  0
   12.6212   -0.8669   16.0120 C   0  0  0  0  0  0  0  0  0  0  0  0
   11.7680   -1.6914   15.2678 C   0  0  0  0  0  0  0  0  0  0  0  0
   11.8360   -3.0664   15.4598 C   0  0  0  0  0  0  0  0  0  0  0  0
   12.7928   -3.6103   16.3146 C   0  0  0  0  0  0  0  0  0  0  0  0
   13.7156   -2.8057   16.9944 C   0  0  0  0  0  0  0  0  0  0  0  0
   14.9352   -3.5871   17.9112 Cl  0  0  0  0  0  0  0  0  0  0  0  0
   13.5700   -1.4161   16.8795 C   0  0  0  0  0  0  0  0  0  0  0  0
   14.1228   -0.3049   17.4815 N   0  0  0  0  0  0  0  0  0  0  0  0
   15.2094   -0.3148   18.4982 C   0  0  0  0  0  0  0  0  0  0  0  0
   15.1319   -1.0706   19.8094 C   0  0  0  0  0  0  0  0  0  0  0  0
   15.1216    0.4175   19.8242 C   0  0  0  0  0  0  0  0  0  0  0  0
  1  2  1  0
  2  3  1  0
  3  4  1  0
  4  5  1  0
  5  6  2  0
  6  7  1  0
  7  8  2  0
  8  9  1  0
  9 10  2  0
 10 11  1  0
 11 12  1  0
 11 13  2  0
 13 14  1  0
 14 15  1  0
 15 16  1  0
 16 17  1  0
 14  5  1  0
 17 15  1  0
 13  7  1  0
M  END
>  <HIPPO Compound ID>  (67) 
9337

>  <fragmenstein_outcome>  (67) 
acceptable

>  <smiles>  (67) 
C31017-P55

>  <HIPPO Pose ID>  (67) 
33442

>  <fragmenstein_runtime>  (67) 
0.788536

>  <ref_pdb>  (67) 
97

>  <Energy>  (67) 
35.722932

>  <scratch_subdir>  (67) 
/opt/xchem-fragalysis-2/maxwin/BulkDock/SCRATCH/511016/C31017-P55

>  <inchikey>  (67) 
ZJQAWOMBIJARFG-UHFFFAOYSA-N

>  <fragmenstein_error>  (67) 


>  <tags>  (67) 
{'fragmenstein_placed', 'openbind_d68ev3c_c1_knitwork_pure'}

>  <alias>  (67) 
CCNCc1nc2cccc(Cl)c2n1C1CC1

>  <fragmenstein_mode>  (67) 
expansion

$$$$
CCNCc1nc2c(F)cccc2n1C
     RDKit          3D

 15 16  0  0  0  0  0  0  0  0999 V2000
   16.4276    2.6667   17.8299 C   0  0  0  0  0  0  0  0  0  0  0  0
   15.8320    2.5937   16.4316 C   0  0  0  0  0  0  0  0  0  0  0  0
   14.4656    3.1142   16.3273 N   0  0  0  0  0  0  0  0  0  0  0  0
   13.4969    2.3955   17.1600 C   0  0  0  0  0  0  0  0  0  0  0  0
   13.2991    0.9680   16.7448 C   0  0  0  0  0  0  0  0  0  0  0  0
   13.9415   -0.0738   17.2425 N   0  0  0  0  0  0  0  0  0  0  0  0
   13.3396   -1.1896   16.7081 C   0  0  0  0  0  0  0  0  0  0  0  0
   13.5632   -2.5593   16.9408 C   0  0  0  0  0  0  0  0  0  0  0  0
   14.5427   -2.9870   17.7526 F   0  0  0  0  0  0  0  0  0  0  0  0
   12.7228   -3.4990   16.3450 C   0  0  0  0  0  0  0  0  0  0  0  0
   11.6971   -3.0903   15.4929 C   0  0  0  0  0  0  0  0  0  0  0  0
   11.4788   -1.7402   15.2151 C   0  0  0  0  0  0  0  0  0  0  0  0
   12.3134   -0.8132   15.8433 C   0  0  0  0  0  0  0  0  0  0  0  0
   12.3595    0.5598   15.8248 N   0  0  0  0  0  0  0  0  0  0  0  0
   11.4989    1.4145   15.0428 C   0  0  0  0  0  0  0  0  0  0  0  0
  1  2  1  0
  2  3  1  0
  3  4  1  0
  4  5  1  0
  5  6  2  0
  6  7  1  0
  7  8  2  0
  8  9  1  0
  8 10  1  0
 10 11  2  0
 11 12  1  0
 12 13  2  0
 13 14  1  0
 14 15  1  0
 14  5  1  0
 13  7  1  0
M  END
>  <HIPPO Compound ID>  (68) 
90248

>  <fragmenstein_outcome>  (68) 
acceptable

>  <smiles>  (68) 
C31032-P55

>  <HIPPO Pose ID>  (68) 
33445

>  <fragmenstein_runtime>  (68) 
0.72855

>  <ref_pdb>  (68) 
97

>  <Energy>  (68) 
40.058037

>  <scratch_subdir>  (68) 
/opt/xchem-fragalysis-2/maxwin/BulkDock/SCRATCH/511016/C31032-P55

>  <inchikey>  (68) 
WJHYFXLWJVIYPI-UHFFFAOYSA-N

>  <fragmenstein_error>  (68) 


>  <tags>  (68) 
{'fragmenstein_placed', 'openbind_d68ev3c_c1_knitwork_pure'}

>  <alias>  (68) 
CCNCc1nc2c(F)cccc2n1C

>  <fragmenstein_mode>  (68) 
expansion

$$$$
CCNCc1nc2c(F)cccc2n1CC
     RDKit          3D

 16 17  0  0  0  0  0  0  0  0999 V2000
   16.5026    2.6201   17.8425 C   0  0  0  0  0  0  0  0  0  0  0  0
   15.8884    2.5691   16.4515 C   0  0  0  0  0  0  0  0  0  0  0  0
   14.5328    3.1179   16.3714 N   0  0  0  0  0  0  0  0  0  0  0  0
   13.5596    2.4097   17.2081 C   0  0  0  0  0  0  0  0  0  0  0  0
   13.3280    0.9900   16.7811 C   0  0  0  0  0  0  0  0  0  0  0  0
   13.9433   -0.0685   17.2782 N   0  0  0  0  0  0  0  0  0  0  0  0
   13.3347   -1.1682   16.7214 C   0  0  0  0  0  0  0  0  0  0  0  0
   13.5387   -2.5433   16.9388 C   0  0  0  0  0  0  0  0  0  0  0  0
   14.5011   -2.9935   17.7589 F   0  0  0  0  0  0  0  0  0  0  0  0
   12.6980   -3.4652   16.3159 C   0  0  0  0  0  0  0  0  0  0  0  0
   11.6940   -3.0340   15.4488 C   0  0  0  0  0  0  0  0  0  0  0  0
   11.4975   -1.6768   15.1853 C   0  0  0  0  0  0  0  0  0  0  0  0
   12.3283   -0.7672   15.8446 C   0  0  0  0  0  0  0  0  0  0  0  0
   12.3909    0.6074   15.8460 N   0  0  0  0  0  0  0  0  0  0  0  0
   11.5807    1.4848   15.0230 C   0  0  0  0  0  0  0  0  0  0  0  0
   10.2590    1.8536   15.6725 C   0  0  0  0  0  0  0  0  0  0  0  0
  1  2  1  0
  2  3  1  0
  3  4  1  0
  4  5  1  0
  5  6  2  0
  6  7  1  0
  7  8  2  0
  8  9  1  0
  8 10  1  0
 10 11  2  0
 11 12  1  0
 12 13  2  0
 13 14  1  0
 14 15  1  0
 15 16  1  0
 14  5  1  0
 13  7  1  0
M  END
>  <HIPPO Compound ID>  (69) 
4740

>  <fragmenstein_outcome>  (69) 
acceptable

>  <smiles>  (69) 
C31034-P55

>  <HIPPO Pose ID>  (69) 
33446

>  <fragmenstein_runtime>  (69) 
0.75279

>  <ref_pdb>  (69) 
97

>  <Energy>  (69) 
37.635271

>  <scratch_subdir>  (69) 
/opt/xchem-fragalysis-2/maxwin/BulkDock/SCRATCH/511016/C31034-P55

>  <inchikey>  (69) 
AEYIOYHTKWTWSL-UHFFFAOYSA-N

>  <fragmenstein_error>  (69) 


>  <tags>  (69) 
{'fragmenstein_placed', 'openbind_d68ev3c_c1_knitwork_pure'}

>  <alias>  (69) 
CCNCc1nc2c(F)cccc2n1CC

>  <fragmenstein_mode>  (69) 
expansion

$$$$
CCNCc1nc2c(F)cccc2n1C1CC1
     RDKit          3D

 17 19  0  0  0  0  0  0  0  0999 V2000
   16.6015    2.6060   17.6379 C   0  0  0  0  0  0  0  0  0  0  0  0
   15.8247    2.6097   16.3283 C   0  0  0  0  0  0  0  0  0  0  0  0
   14.4582    3.1285   16.4380 N   0  0  0  0  0  0  0  0  0  0  0  0
   13.6079    2.3402   17.3369 C   0  0  0  0  0  0  0  0  0  0  0  0
   13.4088    0.9289   16.8913 C   0  0  0  0  0  0  0  0  0  0  0  0
   13.9344   -0.1452   17.4566 N   0  0  0  0  0  0  0  0  0  0  0  0
   13.3701   -1.2259   16.8133 C   0  0  0  0  0  0  0  0  0  0  0  0
   13.5209   -2.6063   17.0399 C   0  0  0  0  0  0  0  0  0  0  0  0
   14.3921   -3.0793   17.9440 F   0  0  0  0  0  0  0  0  0  0  0  0
   12.7192   -3.5060   16.3392 C   0  0  0  0  0  0  0  0  0  0  0  0
   11.8272   -3.0502   15.3691 C   0  0  0  0  0  0  0  0  0  0  0  0
   11.7234   -1.6930   15.0625 C   0  0  0  0  0  0  0  0  0  0  0  0
   12.4830   -0.8002   15.8234 C   0  0  0  0  0  0  0  0  0  0  0  0
   12.5924    0.5657   15.8509 N   0  0  0  0  0  0  0  0  0  0  0  0
   12.0009    1.4996   14.8674 C   0  0  0  0  0  0  0  0  0  0  0  0
   10.9351    2.5071   15.2353 C   0  0  0  0  0  0  0  0  0  0  0  0
   10.6027    1.3735   14.3180 C   0  0  0  0  0  0  0  0  0  0  0  0
  1  2  1  0
  2  3  1  0
  3  4  1  0
  4  5  1  0
  5  6  2  0
  6  7  1  0
  7  8  2  0
  8  9  1  0
  8 10  1  0
 10 11  2  0
 11 12  1  0
 12 13  2  0
 13 14  1  0
 14 15  1  0
 15 16  1  0
 16 17  1  0
 14  5  1  0
 17 15  1  0
 13  7  1  0
M  END
>  <HIPPO Compound ID>  (70) 
22085

>  <fragmenstein_outcome>  (70) 
acceptable

>  <smiles>  (70) 
C31035-P55

>  <HIPPO Pose ID>  (70) 
33447

>  <fragmenstein_runtime>  (70) 
0.956841

>  <ref_pdb>  (70) 
97

>  <Energy>  (70) 
62.946554

>  <scratch_subdir>  (70) 
/opt/xchem-fragalysis-2/maxwin/BulkDock/SCRATCH/511016/C31035-P55

>  <inchikey>  (70) 
GJPSFNOQTCLMQQ-UHFFFAOYSA-N

>  <fragmenstein_error>  (70) 


>  <tags>  (70) 
{'fragmenstein_placed', 'openbind_d68ev3c_c1_knitwork_pure'}

>  <alias>  (70) 
CCNCc1nc2c(F)cccc2n1C1CC1

>  <fragmenstein_mode>  (70) 
expansion

$$$$
CCNCc1nc2ccc(F)c(F)c2[nH]1
     RDKit          3D

 15 16  0  0  0  0  0  0  0  0999 V2000
   16.5220    2.7005   17.6234 C   0  0  0  0  0  0  0  0  0  0  0  0
   15.7894    2.6720   16.2890 C   0  0  0  0  0  0  0  0  0  0  0  0
   14.4134    3.1516   16.3608 N   0  0  0  0  0  0  0  0  0  0  0  0
   13.5318    2.3973   17.2504 C   0  0  0  0  0  0  0  0  0  0  0  0
   13.2847    1.0014   16.7778 C   0  0  0  0  0  0  0  0  0  0  0  0
   12.3637    0.6147   15.9155 N   0  0  0  0  0  0  0  0  0  0  0  0
   12.4034   -0.7538   15.9194 C   0  0  0  0  0  0  0  0  0  0  0  0
   11.5773   -1.6742   15.2599 C   0  0  0  0  0  0  0  0  0  0  0  0
   11.7643   -3.0385   15.5109 C   0  0  0  0  0  0  0  0  0  0  0  0
   12.7718   -3.4678   16.3737 C   0  0  0  0  0  0  0  0  0  0  0  0
   12.9117   -4.7757   16.6219 F   0  0  0  0  0  0  0  0  0  0  0  0
   13.6308   -2.5667   16.9940 C   0  0  0  0  0  0  0  0  0  0  0  0
   14.6039   -2.9892   17.8127 F   0  0  0  0  0  0  0  0  0  0  0  0
   13.4067   -1.2139   16.7634 C   0  0  0  0  0  0  0  0  0  0  0  0
   13.9834   -0.0783   17.2650 N   0  0  0  0  0  0  0  0  0  0  0  0
  1  2  1  0
  2  3  1  0
  3  4  1  0
  4  5  1  0
  5  6  2  0
  6  7  1  0
  7  8  2  0
  8  9  1  0
  9 10  2  0
 10 11  1  0
 10 12  1  0
 12 13  1  0
 12 14  2  0
 14 15  1  0
 15  5  1  0
 14  7  1  0
M  END
>  <HIPPO Compound ID>  (71) 
33499

>  <fragmenstein_outcome>  (71) 
acceptable

>  <smiles>  (71) 
C31038-P55

>  <HIPPO Pose ID>  (71) 
33448

>  <fragmenstein_runtime>  (71) 
0.747085

>  <ref_pdb>  (71) 
97

>  <Energy>  (71) 
12.207457

>  <scratch_subdir>  (71) 
/opt/xchem-fragalysis-2/maxwin/BulkDock/SCRATCH/511016/C31038-P55

>  <inchikey>  (71) 
GUOGRLKQAHKULF-UHFFFAOYSA-N

>  <fragmenstein_error>  (71) 


>  <tags>  (71) 
{'fragmenstein_placed', 'openbind_d68ev3c_c1_knitwork_pure'}

>  <alias>  (71) 
CCNCc1nc2ccc(F)c(F)c2[nH]1

>  <fragmenstein_mode>  (71) 
expansion

$$$$
CCNCc1nc2cccc(F)c2n1C
     RDKit          3D

 15 16  0  0  0  0  0  0  0  0999 V2000
   16.6071    2.9578   17.5141 C   0  0  0  0  0  0  0  0  0  0  0  0
   15.7992    2.6751   16.2555 C   0  0  0  0  0  0  0  0  0  0  0  0
   14.4067    3.0956   16.3595 N   0  0  0  0  0  0  0  0  0  0  0  0
   13.6108    2.3351   17.3254 C   0  0  0  0  0  0  0  0  0  0  0  0
   13.3535    0.9279   16.8754 C   0  0  0  0  0  0  0  0  0  0  0  0
   12.4576    0.5954   15.9629 N   0  0  0  0  0  0  0  0  0  0  0  0
   12.4374   -0.7709   15.9347 C   0  0  0  0  0  0  0  0  0  0  0  0
   11.6000   -1.6281   15.2095 C   0  0  0  0  0  0  0  0  0  0  0  0
   11.7143   -3.0066   15.4094 C   0  0  0  0  0  0  0  0  0  0  0  0
   12.6686   -3.5217   16.2875 C   0  0  0  0  0  0  0  0  0  0  0  0
   13.5376   -2.6765   16.9715 C   0  0  0  0  0  0  0  0  0  0  0  0
   14.4637   -3.1951   17.7892 F   0  0  0  0  0  0  0  0  0  0  0  0
   13.3838   -1.2996   16.8050 C   0  0  0  0  0  0  0  0  0  0  0  0
   13.9679   -0.1985   17.3865 N   0  0  0  0  0  0  0  0  0  0  0  0
   14.9763   -0.2429   18.4184 C   0  0  0  0  0  0  0  0  0  0  0  0
  1  2  1  0
  2  3  1  0
  3  4  1  0
  4  5  1  0
  5  6  2  0
  6  7  1  0
  7  8  2  0
  8  9  1  0
  9 10  2  0
 10 11  1  0
 11 12  1  0
 11 13  2  0
 13 14  1  0
 14 15  1  0
 14  5  1  0
 13  7  1  0
M  END
>  <HIPPO Compound ID>  (72) 
5200

>  <fragmenstein_outcome>  (72) 
acceptable

>  <smiles>  (72) 
C31039-P55

>  <HIPPO Pose ID>  (72) 
33449

>  <fragmenstein_runtime>  (72) 
0.788015

>  <ref_pdb>  (72) 
97

>  <Energy>  (72) 
10.752527

>  <scratch_subdir>  (72) 
/opt/xchem-fragalysis-2/maxwin/BulkDock/SCRATCH/511016/C31039-P55

>  <inchikey>  (72) 
UZAPWJTVILDXAV-UHFFFAOYSA-N

>  <fragmenstein_error>  (72) 


>  <tags>  (72) 
{'fragmenstein_placed', 'openbind_d68ev3c_c1_knitwork_pure'}

>  <alias>  (72) 
CCNCc1nc2cccc(F)c2n1C

>  <fragmenstein_mode>  (72) 
expansion

$$$$
N[C@@H](C(=O)NCc1ccc(-n2ccnc2)cc1)[C@@H]1CCCOC1
     RDKit          3D

 23 25  0  0  0  0  0  0  0  0999 V2000
  -18.0452  -18.6502   13.6628 N   0  0  0  0  0  0  0  0  0  0  0  0
  -18.3729  -19.5269   12.5258 C   0  0  1  0  0  0  0  0  0  0  0  0
  -18.3033  -21.0298   12.9975 C   0  0  0  0  0  0  0  0  0  0  0  0
  -18.6848  -21.3875   14.0429 O   0  0  0  0  0  0  0  0  0  0  0  0
  -17.7170  -21.8428   11.8061 N   0  0  0  0  0  0  0  0  0  0  0  0
  -17.5716  -23.2603   11.6268 C   0  0  0  0  0  0  0  0  0  0  0  0
  -16.2514  -23.7806   12.1291 C   0  0  0  0  0  0  0  0  0  0  0  0
  -15.2970  -24.3012   11.2442 C   0  0  0  0  0  0  0  0  0  0  0  0
  -14.0854  -24.8202   11.7164 C   0  0  0  0  0  0  0  0  0  0  0  0
  -13.8299  -24.8537   13.0900 C   0  0  0  0  0  0  0  0  0  0  0  0
  -12.6382  -25.4394   13.5869 N   0  0  0  0  0  0  0  0  0  0  0  0
  -11.4422  -25.6167   12.9271 C   0  0  0  0  0  0  0  0  0  0  0  0
  -10.5799  -26.1617   13.8516 C   0  0  0  0  0  0  0  0  0  0  0  0
  -11.2125  -26.3659   15.0469 N   0  0  0  0  0  0  0  0  0  0  0  0
  -12.4469  -25.9626   14.8474 C   0  0  0  0  0  0  0  0  0  0  0  0
  -14.7748  -24.3268   13.9804 C   0  0  0  0  0  0  0  0  0  0  0  0
  -15.9681  -23.7826   13.4991 C   0  0  0  0  0  0  0  0  0  0  0  0
  -19.7851  -19.2072   11.9697 C   0  0  2  0  0  0  0  0  0  0  0  0
  -20.1320  -20.0629   10.7350 C   0  0  0  0  0  0  0  0  0  0  0  0
  -21.4681  -19.6516   10.1239 C   0  0  0  0  0  0  0  0  0  0  0  0
  -21.5094  -18.1539    9.8765 C   0  0  0  0  0  0  0  0  0  0  0  0
  -21.2573  -17.4513   11.0879 O   0  0  0  0  0  0  0  0  0  0  0  0
  -19.9510  -17.7212   11.6099 C   0  0  0  0  0  0  0  0  0  0  0  0
  2  1  1  1
  2  3  1  0
  3  4  2  0
  3  5  1  0
  5  6  1  0
  6  7  1  0
  7  8  2  0
  8  9  1  0
  9 10  2  0
 10 11  1  0
 11 12  1  0
 12 13  2  0
 13 14  1  0
 14 15  2  0
 10 16  1  0
 16 17  2  0
  2 18  1  0
 18 19  1  6
 19 20  1  0
 20 21  1  0
 21 22  1  0
 22 23  1  0
 17  7  1  0
 23 18  1  0
 15 11  1  0
M  END
>  <HIPPO Compound ID>  (73) 
8561

>  <fragmenstein_outcome>  (73) 
acceptable

>  <smiles>  (73) 
C95997-P112

>  <HIPPO Pose ID>  (73) 
34268

>  <fragmenstein_runtime>  (73) 
6.432685

>  <ref_pdb>  (73) 
97

>  <Energy>  (73) 
89.426451

>  <scratch_subdir>  (73) 
/opt/xchem-fragalysis-2/maxwin/BulkDock/SCRATCH/511016/C95997-P112

>  <inchikey>  (73) 
CCGYIEKQNJSWHR-UHFFFAOYSA-N

>  <fragmenstein_error>  (73) 


>  <tags>  (73) 
{'fragmenstein_placed', 'openbind_d68ev3c_c1_knitwork_pure'}

>  <alias>  (73) 
N[C@@H](C(=O)NCc1ccc(-n2ccnc2)cc1)[C@@H]1CCCOC1

>  <fragmenstein_mode>  (73) 
expansion

$$$$
CC(C)(CNC(=O)c1cc(-c2ccccc2)on1)C1CCNCC1
     RDKit          3D

 24 26  0  0  0  0  0  0  0  0999 V2000
   -4.5761    0.9581   34.5649 C   0  0  0  0  0  0  0  0  0  0  0  0
   -4.6520   -0.5734   34.5455 C   0  0  0  0  0  0  0  0  0  0  0  0
   -5.2622   -1.0048   33.2018 C   0  0  0  0  0  0  0  0  0  0  0  0
   -3.2089   -1.1821   34.6450 C   0  0  0  0  0  0  0  0  0  0  0  0
   -2.3978   -0.9525   33.4667 N   0  0  0  0  0  0  0  0  0  0  0  0
   -2.2870   -1.7601   32.1470 C   0  0  0  0  0  0  0  0  0  0  0  0
   -2.7748   -2.7771   31.8376 O   0  0  0  0  0  0  0  0  0  0  0  0
   -1.4905   -0.9672   31.1910 C   0  0  0  0  0  0  0  0  0  0  0  0
   -1.5943   -0.9443   29.7711 C   0  0  0  0  0  0  0  0  0  0  0  0
   -0.9792    0.2362   29.4103 C   0  0  0  0  0  0  0  0  0  0  0  0
   -1.0436    1.1403   28.2617 C   0  0  0  0  0  0  0  0  0  0  0  0
   -0.3535    2.3666   28.2675 C   0  0  0  0  0  0  0  0  0  0  0  0
   -0.6215    3.3517   27.3123 C   0  0  0  0  0  0  0  0  0  0  0  0
   -1.5775    3.1235   26.3295 C   0  0  0  0  0  0  0  0  0  0  0  0
   -2.2394    1.9003   26.2853 C   0  0  0  0  0  0  0  0  0  0  0  0
   -1.9548    0.9042   27.2254 C   0  0  0  0  0  0  0  0  0  0  0  0
   -0.3260    0.7281   30.5021 O   0  0  0  0  0  0  0  0  0  0  0  0
   -0.6775    0.0113   31.6242 N   0  0  0  0  0  0  0  0  0  0  0  0
   -5.5488   -1.0926   35.7225 C   0  0  0  0  0  0  0  0  0  0  0  0
   -7.0040   -0.5635   35.7543 C   0  0  0  0  0  0  0  0  0  0  0  0
   -7.2090    0.6214   36.6989 C   0  0  0  0  0  0  0  0  0  0  0  0
   -6.7060    0.4177   38.0545 N   0  0  0  0  0  0  0  0  0  0  0  0
   -5.9169   -0.7917   38.2351 C   0  0  0  0  0  0  0  0  0  0  0  0
   -4.8908   -0.9497   37.1159 C   0  0  0  0  0  0  0  0  0  0  0  0
  1  2  1  0
  2  3  1  0
  2  4  1  0
  4  5  1  0
  5  6  1  0
  6  7  2  0
  6  8  1  0
  8  9  1  0
  9 10  2  0
 10 11  1  0
 11 12  2  0
 12 13  1  0
 13 14  2  0
 14 15  1  0
 15 16  2  0
 10 17  1  0
 17 18  1  0
  2 19  1  0
 19 20  1  0
 20 21  1  0
 21 22  1  0
 22 23  1  0
 23 24  1  0
 18  8  2  0
 24 19  1  0
 16 11  1  0
M  END
>  <HIPPO Compound ID>  (74) 
33797

>  <fragmenstein_outcome>  (74) 
acceptable

>  <smiles>  (74) 
C75674-P59

>  <HIPPO Pose ID>  (74) 
34395

>  <fragmenstein_runtime>  (74) 
4.953269

>  <ref_pdb>  (74) 
97

>  <Energy>  (74) 
74.779609

>  <scratch_subdir>  (74) 
/opt/xchem-fragalysis-2/maxwin/BulkDock/SCRATCH/511016/C75674-P59

>  <inchikey>  (74) 
OLTBLWNFDHBSDA-UHFFFAOYSA-N

>  <fragmenstein_error>  (74) 


>  <tags>  (74) 
{'fragmenstein_placed', 'openbind_d68ev3c_c1_knitwork_pure'}

>  <alias>  (74) 
CC(C)(CNC(=O)c1cc(-c2ccccc2)on1)C1CCNCC1

>  <fragmenstein_mode>  (74) 
expansion

$$$$
N#Cc1noc(N2CCCCC2)c1Cl
     RDKit          3D

 14 15  0  0  0  0  0  0  0  0999 V2000
   -2.6302   -2.9668   32.0260 N   0  0  0  0  0  0  0  0  0  0  0  0
   -2.0385   -2.0513   31.6250 C   0  0  0  0  0  0  0  0  0  0  0  0
   -1.3871   -0.9529   30.9950 C   0  0  0  0  0  0  0  0  0  0  0  0
   -0.9844    0.1042   31.7054 N   0  0  0  0  0  0  0  0  0  0  0  0
   -0.5632    1.0237   30.7434 O   0  0  0  0  0  0  0  0  0  0  0  0
   -0.8525    0.5464   29.4869 C   0  0  0  0  0  0  0  0  0  0  0  0
   -0.8796    1.4303   28.4499 N   0  0  0  0  0  0  0  0  0  0  0  0
   -1.5072    1.0493   27.1807 C   0  0  0  0  0  0  0  0  0  0  0  0
   -2.1609    2.2483   26.4993 C   0  0  0  0  0  0  0  0  0  0  0  0
   -1.1933    3.4141   26.3719 C   0  0  0  0  0  0  0  0  0  0  0  0
   -0.6399    3.7777   27.7436 C   0  0  0  0  0  0  0  0  0  0  0  0
    0.0240    2.5801   28.4235 C   0  0  0  0  0  0  0  0  0  0  0  0
   -1.1682   -0.7853   29.6225 C   0  0  0  0  0  0  0  0  0  0  0  0
   -1.3436   -1.9729   28.4439 Cl  0  0  0  0  0  0  0  0  0  0  0  0
  1  2  3  0
  2  3  1  0
  3  4  2  0
  4  5  1  0
  5  6  1  0
  6  7  1  0
  7  8  1  0
  8  9  1  0
  9 10  1  0
 10 11  1  0
 11 12  1  0
  6 13  2  0
 13 14  1  0
 13  3  1  0
 12  7  1  0
M  END
>  <HIPPO Compound ID>  (75) 
17133

>  <fragmenstein_outcome>  (75) 
acceptable

>  <smiles>  (75) 
C75690-P59

>  <HIPPO Pose ID>  (75) 
34401

>  <fragmenstein_runtime>  (75) 
1.296159

>  <ref_pdb>  (75) 
97

>  <Energy>  (75) 
37.461015

>  <scratch_subdir>  (75) 
/opt/xchem-fragalysis-2/maxwin/BulkDock/SCRATCH/511016/C75690-P59

>  <inchikey>  (75) 
XVNUXCQBOAYXJT-UHFFFAOYSA-N

>  <fragmenstein_error>  (75) 


>  <tags>  (75) 
{'fragmenstein_placed', 'openbind_d68ev3c_c1_knitwork_pure'}

>  <alias>  (75) 
N#Cc1noc(N2CCCCC2)c1Cl

>  <fragmenstein_mode>  (75) 
expansion

$$$$
N#CCc1noc(N2CCCCC2)c1Cl
     RDKit          3D

 15 16  0  0  0  0  0  0  0  0999 V2000
   -4.0195   -0.7800   33.6394 N   0  0  0  0  0  0  0  0  0  0  0  0
   -3.0721   -1.2260   33.1351 C   0  0  0  0  0  0  0  0  0  0  0  0
   -1.8771   -1.7905   32.4890 C   0  0  0  0  0  0  0  0  0  0  0  0
   -1.3188   -0.8187   31.5098 C   0  0  0  0  0  0  0  0  0  0  0  0
   -0.7601    0.3175   31.9419 N   0  0  0  0  0  0  0  0  0  0  0  0
   -0.4419    1.0279   30.8018 O   0  0  0  0  0  0  0  0  0  0  0  0
   -0.8627    0.3590   29.6822 C   0  0  0  0  0  0  0  0  0  0  0  0
   -0.8466    1.0482   28.5064 N   0  0  0  0  0  0  0  0  0  0  0  0
   -0.0045    2.2350   28.3284 C   0  0  0  0  0  0  0  0  0  0  0  0
   -0.8051    3.3848   27.7172 C   0  0  0  0  0  0  0  0  0  0  0  0
   -1.5002    2.9549   26.4321 C   0  0  0  0  0  0  0  0  0  0  0  0
   -2.3648    1.7281   26.6908 C   0  0  0  0  0  0  0  0  0  0  0  0
   -1.5712    0.5835   27.3250 C   0  0  0  0  0  0  0  0  0  0  0  0
   -1.2607   -0.8955   30.0978 C   0  0  0  0  0  0  0  0  0  0  0  0
   -1.6250   -2.2690   29.1962 Cl  0  0  0  0  0  0  0  0  0  0  0  0
  1  2  3  0
  2  3  1  0
  3  4  1  0
  4  5  2  0
  5  6  1  0
  6  7  1  0
  7  8  1  0
  8  9  1  0
  9 10  1  0
 10 11  1  0
 11 12  1  0
 12 13  1  0
  7 14  2  0
 14 15  1  0
 14  4  1  0
 13  8  1  0
M  END
>  <HIPPO Compound ID>  (76) 
39468

>  <fragmenstein_outcome>  (76) 
acceptable

>  <smiles>  (76) 
C75691-P59

>  <HIPPO Pose ID>  (76) 
34402

>  <fragmenstein_runtime>  (76) 
0.942847

>  <ref_pdb>  (76) 
97

>  <Energy>  (76) 
26.144573

>  <scratch_subdir>  (76) 
/opt/xchem-fragalysis-2/maxwin/BulkDock/SCRATCH/511016/C75691-P59

>  <inchikey>  (76) 
PSVYRMZTACVYGH-UHFFFAOYSA-N

>  <fragmenstein_error>  (76) 


>  <tags>  (76) 
{'fragmenstein_placed', 'openbind_d68ev3c_c1_knitwork_pure'}

>  <alias>  (76) 
N#CCc1noc(N2CCCCC2)c1Cl

>  <fragmenstein_mode>  (76) 
expansion

$$$$
CCOC(=O)c1noc(N2CCCCC2)c1Cl
     RDKit          3D

 17 18  0  0  0  0  0  0  0  0999 V2000
   -5.0007   -0.6402   34.3654 C   0  0  0  0  0  0  0  0  0  0  0  0
   -3.9725   -1.6552   33.9021 C   0  0  0  0  0  0  0  0  0  0  0  0
   -2.9840   -0.9698   33.1286 O   0  0  0  0  0  0  0  0  0  0  0  0
   -2.3668   -1.6874   32.1381 C   0  0  0  0  0  0  0  0  0  0  0  0
   -2.5693   -2.8776   31.9127 O   0  0  0  0  0  0  0  0  0  0  0  0
   -1.5182   -0.8251   31.3251 C   0  0  0  0  0  0  0  0  0  0  0  0
   -1.0282    0.3291   31.8086 N   0  0  0  0  0  0  0  0  0  0  0  0
   -0.5092    0.9968   30.7177 O   0  0  0  0  0  0  0  0  0  0  0  0
   -0.7653    0.2927   29.5763 C   0  0  0  0  0  0  0  0  0  0  0  0
   -0.6344    0.9467   28.3909 N   0  0  0  0  0  0  0  0  0  0  0  0
   -1.4529    0.5725   27.2379 C   0  0  0  0  0  0  0  0  0  0  0  0
   -2.3098    1.7459   26.7619 C   0  0  0  0  0  0  0  0  0  0  0  0
   -1.4800    3.0027   26.5355 C   0  0  0  0  0  0  0  0  0  0  0  0
   -0.6984    3.3463   27.7977 C   0  0  0  0  0  0  0  0  0  0  0  0
    0.1600    2.1702   28.2620 C   0  0  0  0  0  0  0  0  0  0  0  0
   -1.1717   -0.9685   29.9619 C   0  0  0  0  0  0  0  0  0  0  0  0
   -1.3412   -2.3596   29.0253 Cl  0  0  0  0  0  0  0  0  0  0  0  0
  1  2  1  0
  2  3  1  0
  3  4  1  0
  4  5  2  0
  4  6  1  0
  6  7  2  0
  7  8  1  0
  8  9  1  0
  9 10  1  0
 10 11  1  0
 11 12  1  0
 12 13  1  0
 13 14  1  0
 14 15  1  0
  9 16  2  0
 16 17  1  0
 16  6  1  0
 15 10  1  0
M  END
>  <HIPPO Compound ID>  (77) 
19986

>  <fragmenstein_outcome>  (77) 
acceptable

>  <smiles>  (77) 
C75692-P59

>  <HIPPO Pose ID>  (77) 
34403

>  <fragmenstein_runtime>  (77) 
1.251483

>  <ref_pdb>  (77) 
97

>  <Energy>  (77) 
40.542068

>  <scratch_subdir>  (77) 
/opt/xchem-fragalysis-2/maxwin/BulkDock/SCRATCH/511016/C75692-P59

>  <inchikey>  (77) 
IUWQMRRVPYAJSI-UHFFFAOYSA-N

>  <fragmenstein_error>  (77) 


>  <tags>  (77) 
{'fragmenstein_placed', 'openbind_d68ev3c_c1_knitwork_pure'}

>  <alias>  (77) 
CCOC(=O)c1noc(N2CCCCC2)c1Cl

>  <fragmenstein_mode>  (77) 
expansion

$$$$
C[C@@H](NCCCNC(=O)C1CCC1)c1cnc(-c2ccccn2)s1
     RDKit          3D

 24 26  0  0  0  0  0  0  0  0999 V2000
  -12.1001  -25.2260   26.2480 C   0  0  0  0  0  0  0  0  0  0  0  0
  -11.8954  -25.6882   27.6754 C   0  0  1  0  0  0  0  0  0  0  0  0
  -10.9875  -26.8529   27.8302 N   0  0  0  0  0  0  0  0  0  0  0  0
   -9.5939  -26.6524   27.3775 C   0  0  0  0  0  0  0  0  0  0  0  0
   -8.6798  -28.0382   27.2890 C   0  0  0  0  0  0  0  0  0  0  0  0
   -9.2673  -29.3526   27.8678 C   0  0  0  0  0  0  0  0  0  0  0  0
   -8.8131  -30.4898   27.1032 N   0  0  0  0  0  0  0  0  0  0  0  0
   -9.5513  -31.7919   26.7002 C   0  0  0  0  0  0  0  0  0  0  0  0
  -10.6662  -32.1118   26.8591 O   0  0  0  0  0  0  0  0  0  0  0  0
   -8.5425  -32.6947   25.8855 C   0  0  0  0  0  0  0  0  0  0  0  0
   -8.1783  -34.0723   26.5001 C   0  0  0  0  0  0  0  0  0  0  0  0
   -9.2404  -34.7099   25.5882 C   0  0  0  0  0  0  0  0  0  0  0  0
   -9.1197  -33.4782   24.6747 C   0  0  0  0  0  0  0  0  0  0  0  0
  -11.5331  -24.5684   28.5923 C   0  0  0  0  0  0  0  0  0  0  0  0
  -11.4336  -23.2021   28.4009 C   0  0  0  0  0  0  0  0  0  0  0  0
  -11.0627  -22.4718   29.5131 N   0  0  0  0  0  0  0  0  0  0  0  0
  -10.8156  -23.2978   30.5063 C   0  0  0  0  0  0  0  0  0  0  0  0
  -10.2965  -22.9804   31.8205 C   0  0  0  0  0  0  0  0  0  0  0  0
  -10.9957  -22.1607   32.6884 C   0  0  0  0  0  0  0  0  0  0  0  0
  -10.5490  -22.0939   33.9963 C   0  0  0  0  0  0  0  0  0  0  0  0
   -9.4104  -22.8081   34.3629 C   0  0  0  0  0  0  0  0  0  0  0  0
   -8.7308  -23.5407   33.4119 C   0  0  0  0  0  0  0  0  0  0  0  0
   -9.1677  -23.6661   32.1541 N   0  0  0  0  0  0  0  0  0  0  0  0
  -11.1996  -24.9397   30.2266 S   0  0  0  0  0  0  0  0  0  0  0  0
  2  1  1  6
  2  3  1  0
  3  4  1  0
  4  5  1  0
  5  6  1  0
  6  7  1  0
  7  8  1  0
  8  9  2  0
  8 10  1  0
 10 11  1  0
 11 12  1  0
 12 13  1  0
  2 14  1  0
 14 15  2  0
 15 16  1  0
 16 17  2  0
 17 18  1  0
 18 19  2  0
 19 20  1  0
 20 21  2  0
 21 22  1  0
 22 23  2  0
 17 24  1  0
 13 10  1  0
 24 14  1  0
 23 18  1  0
M  END
>  <HIPPO Compound ID>  (78) 
6451

>  <fragmenstein_outcome>  (78) 
acceptable

>  <smiles>  (78) 
C72099-P88

>  <HIPPO Pose ID>  (78) 
35330

>  <fragmenstein_runtime>  (78) 
9.635328

>  <ref_pdb>  (78) 
97

>  <Energy>  (78) 
81.86173

>  <scratch_subdir>  (78) 
/opt/xchem-fragalysis-2/maxwin/BulkDock/SCRATCH/511016/C72099-P88

>  <inchikey>  (78) 
HORVLCLBPBSEJI-UHFFFAOYSA-N

>  <fragmenstein_error>  (78) 


>  <tags>  (78) 
{'fragmenstein_placed', 'openbind_d68ev3c_c1_knitwork_pure'}

>  <alias>  (78) 
C[C@@H](NCCCNC(=O)C1CCC1)c1cnc(-c2ccccn2)s1

>  <fragmenstein_mode>  (78) 
expansion

$$$$
CN(CCOC1CCOCC1)C[C@H]1CCCO1
     RDKit          3D

 17 18  0  0  0  0  0  0  0  0999 V2000
   -9.2221  -27.4317   14.3470 C   0  0  0  0  0  0  0  0  0  0  0  0
  -10.2948  -26.4506   14.0831 N   0  0  0  0  0  0  0  0  0  0  0  0
  -11.5589  -27.1236   14.4893 C   0  0  0  0  0  0  0  0  0  0  0  0
  -12.8671  -26.3209   14.5024 C   0  0  0  0  0  0  0  0  0  0  0  0
  -13.1543  -25.8011   13.2079 O   0  0  0  0  0  0  0  0  0  0  0  0
  -14.4915  -25.3365   13.0521 C   0  0  0  0  0  0  0  0  0  0  0  0
  -14.6914  -25.0024   11.5834 C   0  0  0  0  0  0  0  0  0  0  0  0
  -16.1030  -24.4933   11.3290 C   0  0  0  0  0  0  0  0  0  0  0  0
  -16.8057  -24.2082   12.5391 O   0  0  0  0  0  0  0  0  0  0  0  0
  -16.0555  -23.3881   13.4269 C   0  0  0  0  0  0  0  0  0  0  0  0
  -14.7952  -24.1021   13.8991 C   0  0  0  0  0  0  0  0  0  0  0  0
  -10.2851  -26.1003   12.6315 C   0  0  0  0  0  0  0  0  0  0  0  0
  -10.3691  -24.6021   12.2440 C   0  0  1  0  0  0  0  0  0  0  0  0
  -11.0193  -23.6841   13.2443 C   0  0  0  0  0  0  0  0  0  0  0  0
   -9.8424  -23.0714   13.9593 C   0  0  0  0  0  0  0  0  0  0  0  0
   -9.0098  -22.7839   12.7868 C   0  0  0  0  0  0  0  0  0  0  0  0
   -9.0600  -24.0119   12.0276 O   0  0  0  0  0  0  0  0  0  0  0  0
  1  2  1  0
  2  3  1  0
  3  4  1  0
  4  5  1  0
  5  6  1  0
  6  7  1  0
  7  8  1  0
  8  9  1  0
  9 10  1  0
 10 11  1  0
  2 12  1  0
 13 12  1  1
 13 14  1  0
 14 15  1  0
 15 16  1  0
 16 17  1  0
 11  6  1  0
 17 13  1  0
M  END
>  <HIPPO Compound ID>  (79) 
37006

>  <fragmenstein_outcome>  (79) 
acceptable

>  <smiles>  (79) 
C89136-P112

>  <HIPPO Pose ID>  (79) 
36983

>  <fragmenstein_runtime>  (79) 
1.658318

>  <ref_pdb>  (79) 
28

>  <Energy>  (79) 
84.546915

>  <scratch_subdir>  (79) 
/opt/xchem-fragalysis-2/maxwin/BulkDock/SCRATCH/511017/C89136-P112

>  <inchikey>  (79) 
AFUQERIZGDUNOW-UHFFFAOYSA-N

>  <fragmenstein_error>  (79) 


>  <tags>  (79) 
{'fragmenstein_placed', 'openbind_d68ev3c_c1_knitwork_pure'}

>  <alias>  (79) 
CN(CCOC1CCOCC1)C[C@H]1CCCO1

>  <fragmenstein_mode>  (79) 
expansion

$$$$
CC(C)c1nc(N2CCCC2)sc1C(C)(C)O
     RDKit          3D

 17 18  0  0  0  0  0  0  0  0999 V2000
   -0.6924    3.6926   23.6480 C   0  0  0  0  0  0  0  0  0  0  0  0
   -1.8975    3.2681   24.4721 C   0  0  0  0  0  0  0  0  0  0  0  0
   -3.1027    4.1764   24.2659 C   0  0  0  0  0  0  0  0  0  0  0  0
   -1.6083    2.9155   25.9138 C   0  0  0  0  0  0  0  0  0  0  0  0
   -1.8652    1.5823   26.2562 N   0  0  0  0  0  0  0  0  0  0  0  0
   -1.5699    1.3222   27.5080 C   0  0  0  0  0  0  0  0  0  0  0  0
   -1.5614    0.0620   28.0375 N   0  0  0  0  0  0  0  0  0  0  0  0
   -0.3497   -0.7013   27.7295 C   0  0  0  0  0  0  0  0  0  0  0  0
    0.4967   -0.6418   29.0042 C   0  0  0  0  0  0  0  0  0  0  0  0
   -0.4637   -0.2492   30.1208 C   0  0  0  0  0  0  0  0  0  0  0  0
   -1.8277   -0.1755   29.4482 C   0  0  0  0  0  0  0  0  0  0  0  0
   -1.0014    2.6906   28.3568 S   0  0  0  0  0  0  0  0  0  0  0  0
   -1.0251    3.6501   26.9414 C   0  0  0  0  0  0  0  0  0  0  0  0
   -0.3238    4.9789   26.9696 C   0  0  0  0  0  0  0  0  0  0  0  0
    1.1609    4.7643   26.6513 C   0  0  0  0  0  0  0  0  0  0  0  0
   -0.4369    5.7940   28.2577 C   0  0  0  0  0  0  0  0  0  0  0  0
   -0.9070    5.7954   25.9649 O   0  0  0  0  0  0  0  0  0  0  0  0
  1  2  1  0
  2  3  1  0
  2  4  1  0
  4  5  1  0
  5  6  2  0
  6  7  1  0
  7  8  1  0
  8  9  1  0
  9 10  1  0
 10 11  1  0
  6 12  1  0
 12 13  1  0
 13 14  1  0
 14 15  1  0
 14 16  1  0
 14 17  1  0
 13  4  2  0
 11  7  1  0
M  END
>  <HIPPO Compound ID>  (80) 
21933

>  <fragmenstein_outcome>  (80) 
acceptable

>  <smiles>  (80) 
C8425-P53

>  <HIPPO Pose ID>  (80) 
38702

>  <fragmenstein_runtime>  (80) 
4.880514

>  <ref_pdb>  (80) 
28

>  <Energy>  (80) 
10.662649

>  <scratch_subdir>  (80) 
/opt/xchem-fragalysis-2/maxwin/BulkDock/SCRATCH/511017/C8425-P53

>  <inchikey>  (80) 
KVXPRPRHIKRWQK-UHFFFAOYSA-N

>  <fragmenstein_error>  (80) 


>  <tags>  (80) 
{'fragmenstein_placed', 'openbind_d68ev3c_c1_knitwork_pure'}

>  <alias>  (80) 
CC(C)c1nc(N2CCCC2)sc1C(C)(C)O

>  <fragmenstein_mode>  (80) 
expansion

$$$$
CC(C)(CNc1nccc(-n2ccnc2)n1)OC(F)F
     RDKit          3D

 20 21  0  0  0  0  0  0  0  0999 V2000
   -8.7267  -21.3161   33.1642 C   0  0  0  0  0  0  0  0  0  0  0  0
  -10.0921  -21.9507   33.2197 C   0  0  0  0  0  0  0  0  0  0  0  0
  -10.9749  -21.0270   34.0700 C   0  0  0  0  0  0  0  0  0  0  0  0
  -10.7338  -22.0611   31.8149 C   0  0  0  0  0  0  0  0  0  0  0  0
  -10.0421  -23.0186   30.9529 N   0  0  0  0  0  0  0  0  0  0  0  0
  -10.6513  -23.1175   29.7087 C   0  0  0  0  0  0  0  0  0  0  0  0
  -10.8099  -22.0249   28.9597 N   0  0  0  0  0  0  0  0  0  0  0  0
  -11.3583  -22.1983   27.7502 C   0  0  0  0  0  0  0  0  0  0  0  0
  -11.7949  -23.4105   27.2773 C   0  0  0  0  0  0  0  0  0  0  0  0
  -11.6184  -24.4778   28.1306 C   0  0  0  0  0  0  0  0  0  0  0  0
  -12.0632  -25.7746   27.7575 N   0  0  0  0  0  0  0  0  0  0  0  0
  -11.9055  -26.9278   28.4945 C   0  0  0  0  0  0  0  0  0  0  0  0
  -12.4584  -27.9362   27.7431 C   0  0  0  0  0  0  0  0  0  0  0  0
  -12.9612  -27.4473   26.5664 N   0  0  0  0  0  0  0  0  0  0  0  0
  -12.7436  -26.1513   26.6218 C   0  0  0  0  0  0  0  0  0  0  0  0
  -11.0306  -24.3472   29.3406 N   0  0  0  0  0  0  0  0  0  0  0  0
   -9.9558  -23.1904   33.9230 O   0  0  0  0  0  0  0  0  0  0  0  0
   -9.0016  -24.1082   33.4230 C   0  0  0  0  0  0  0  0  0  0  0  0
   -9.6296  -24.8828   32.5065 F   0  0  0  0  0  0  0  0  0  0  0  0
   -8.6851  -24.9275   34.4510 F   0  0  0  0  0  0  0  0  0  0  0  0
  1  2  1  0
  2  3  1  0
  2  4  1  0
  4  5  1  0
  5  6  1  0
  6  7  2  0
  7  8  1  0
  8  9  2  0
  9 10  1  0
 10 11  1  0
 11 12  1  0
 12 13  2  0
 13 14  1  0
 14 15  2  0
 10 16  2  0
  2 17  1  0
 17 18  1  0
 18 19  1  0
 18 20  1  0
 16  6  1  0
 15 11  1  0
M  END
>  <HIPPO Compound ID>  (81) 
9408

>  <fragmenstein_outcome>  (81) 
acceptable

>  <smiles>  (81) 
C91164-P54

>  <HIPPO Pose ID>  (81) 
38731

>  <fragmenstein_runtime>  (81) 
5.105584

>  <ref_pdb>  (81) 
28

>  <Energy>  (81) 
-50.284093

>  <scratch_subdir>  (81) 
/opt/xchem-fragalysis-2/maxwin/BulkDock/SCRATCH/511017/C91164-P54

>  <inchikey>  (81) 
IMOJQXLXOZLHGE-UHFFFAOYSA-N

>  <fragmenstein_error>  (81) 


>  <tags>  (81) 
{'fragmenstein_placed', 'openbind_d68ev3c_c1_knitwork_pure'}

>  <alias>  (81) 
CC(C)(CNc1nccc(-n2ccnc2)n1)OC(F)F

>  <fragmenstein_mode>  (81) 
expansion

$$$$
Cc1cnc2c(C(=O)N[C@H](Cc3cncs3)C(=O)O)cccn12
     RDKit          3D

 23 25  0  0  0  0  0  0  0  0999 V2000
   -4.9746  -24.7021   27.3606 C   0  0  0  0  0  0  0  0  0  0  0  0
   -6.3356  -25.2104   27.3078 C   0  0  0  0  0  0  0  0  0  0  0  0
   -7.5215  -24.5866   27.6009 C   0  0  0  0  0  0  0  0  0  0  0  0
   -8.5456  -25.4805   27.5485 N   0  0  0  0  0  0  0  0  0  0  0  0
   -8.0062  -26.6403   27.2134 C   0  0  0  0  0  0  0  0  0  0  0  0
   -8.6081  -27.9142   26.9499 C   0  0  0  0  0  0  0  0  0  0  0  0
  -10.0809  -28.1417   26.8658 C   0  0  0  0  0  0  0  0  0  0  0  0
  -10.5926  -29.1831   26.9308 O   0  0  0  0  0  0  0  0  0  0  0  0
  -10.6747  -26.7607   26.5855 N   0  0  0  0  0  0  0  0  0  0  0  0
  -12.0218  -26.3539   26.4176 C   0  0  2  0  0  0  0  0  0  0  0  0
  -11.9780  -24.8136   26.3788 C   0  0  0  0  0  0  0  0  0  0  0  0
  -11.7046  -24.0752   27.6710 C   0  0  0  0  0  0  0  0  0  0  0  0
  -11.6017  -22.7069   27.8357 C   0  0  0  0  0  0  0  0  0  0  0  0
  -11.5057  -22.2354   29.1261 N   0  0  0  0  0  0  0  0  0  0  0  0
  -11.4621  -23.2569   29.9405 C   0  0  0  0  0  0  0  0  0  0  0  0
  -11.4302  -24.7923   29.1999 S   0  0  0  0  0  0  0  0  0  0  0  0
  -13.0166  -26.9485   27.4097 C   0  0  0  0  0  0  0  0  0  0  0  0
  -14.2250  -26.7587   27.3316 O   0  0  0  0  0  0  0  0  0  0  0  0
  -12.5266  -27.6753   28.4248 O   0  0  0  0  0  0  0  0  0  0  0  0
   -7.8533  -28.9181   26.4851 C   0  0  0  0  0  0  0  0  0  0  0  0
   -6.4482  -28.7241   26.2625 C   0  0  0  0  0  0  0  0  0  0  0  0
   -5.8471  -27.5679   26.5718 C   0  0  0  0  0  0  0  0  0  0  0  0
   -6.6432  -26.5165   27.0065 N   0  0  0  0  0  0  0  0  0  0  0  0
  1  2  1  0
  2  3  2  0
  3  4  1  0
  4  5  2  0
  5  6  1  0
  6  7  1  0
  7  8  2  0
  7  9  1  0
  9 10  1  0
 10 11  1  1
 11 12  1  0
 12 13  2  0
 13 14  1  0
 14 15  2  0
 15 16  1  0
 10 17  1  0
 17 18  2  0
 17 19  1  0
  6 20  2  0
 20 21  1  0
 21 22  2  0
 22 23  1  0
 23  2  1  0
 23  5  1  0
 16 12  1  0
M  END
>  <HIPPO Compound ID>  (82) 
12821

>  <fragmenstein_outcome>  (82) 
acceptable

>  <smiles>  (82) 
C5537-P45

>  <HIPPO Pose ID>  (82) 
39282

>  <fragmenstein_runtime>  (82) 
3.733948

>  <ref_pdb>  (82) 
95

>  <Energy>  (82) 
62.458226

>  <scratch_subdir>  (82) 
/opt/xchem-fragalysis-2/maxwin/BulkDock/SCRATCH/511018/C5537-P45

>  <inchikey>  (82) 
STZCBEQONYKHOQ-UHFFFAOYSA-N

>  <fragmenstein_error>  (82) 


>  <tags>  (82) 
{'fragmenstein_placed', 'openbind_d68ev3c_c1_knitwork_pure'}

>  <alias>  (82) 
Cc1cnc2c(C(=O)N[C@H](Cc3cncs3)C(=O)O)cccn12

>  <fragmenstein_mode>  (82) 
expansion

$$$$
C[C@H](NCc1nnnn1C1CCCCC1)c1cccnc1
     RDKit          3D

 21 23  0  0  0  0  0  0  0  0999 V2000
   -6.4568  -27.0740    9.1511 C   0  0  0  0  0  0  0  0  0  0  0  0
   -7.8940  -27.3784    8.7079 C   0  0  2  0  0  0  0  0  0  0  0  0
   -8.8785  -26.9952    9.7264 N   0  0  0  0  0  0  0  0  0  0  0  0
   -9.1936  -25.5719    9.7174 C   0  0  0  0  0  0  0  0  0  0  0  0
  -10.1494  -25.2289   10.7933 C   0  0  0  0  0  0  0  0  0  0  0  0
   -9.8080  -24.5506   11.8735 N   0  0  0  0  0  0  0  0  0  0  0  0
  -10.9331  -24.4175   12.6275 N   0  0  0  0  0  0  0  0  0  0  0  0
  -11.9606  -25.0037   12.0414 N   0  0  0  0  0  0  0  0  0  0  0  0
  -11.4901  -25.5118   10.8748 N   0  0  0  0  0  0  0  0  0  0  0  0
  -12.4784  -26.1125    9.9915 C   0  0  0  0  0  0  0  0  0  0  0  0
  -13.3487  -25.0440    9.3090 C   0  0  0  0  0  0  0  0  0  0  0  0
  -12.7491  -24.5383    8.0061 C   0  0  0  0  0  0  0  0  0  0  0  0
  -12.5874  -25.6918    7.0275 C   0  0  0  0  0  0  0  0  0  0  0  0
  -11.6989  -26.7927    7.5915 C   0  0  0  0  0  0  0  0  0  0  0  0
  -12.0694  -27.2266    9.0118 C   0  0  0  0  0  0  0  0  0  0  0  0
   -8.0643  -28.8463    8.3752 C   0  0  0  0  0  0  0  0  0  0  0  0
   -7.8132  -29.8689    9.2980 C   0  0  0  0  0  0  0  0  0  0  0  0
   -7.9963  -31.1993    8.9294 C   0  0  0  0  0  0  0  0  0  0  0  0
   -8.4317  -31.4707    7.6438 C   0  0  0  0  0  0  0  0  0  0  0  0
   -8.6929  -30.5179    6.7250 N   0  0  0  0  0  0  0  0  0  0  0  0
   -8.5071  -29.2351    7.1121 C   0  0  0  0  0  0  0  0  0  0  0  0
  2  1  1  1
  2  3  1  0
  3  4  1  0
  4  5  1  0
  5  6  2  0
  6  7  1  0
  7  8  2  0
  8  9  1  0
  9 10  1  0
 10 11  1  0
 11 12  1  0
 12 13  1  0
 13 14  1  0
 14 15  1  0
  2 16  1  0
 16 17  2  0
 17 18  1  0
 18 19  2  0
 19 20  1  0
 20 21  2  0
  9  5  1  0
 15 10  1  0
 21 16  1  0
M  END
>  <HIPPO Compound ID>  (83) 
17100

>  <fragmenstein_outcome>  (83) 
acceptable

>  <smiles>  (83) 
C15906-P93

>  <HIPPO Pose ID>  (83) 
40241

>  <fragmenstein_runtime>  (83) 
3.040466

>  <ref_pdb>  (83) 
95

>  <Energy>  (83) 
22.703604

>  <scratch_subdir>  (83) 
/opt/xchem-fragalysis-2/maxwin/BulkDock/SCRATCH/511018/C15906-P93

>  <inchikey>  (83) 
DTOYEFDZWGQVIN-UHFFFAOYSA-N

>  <fragmenstein_error>  (83) 


>  <tags>  (83) 
{'fragmenstein_placed', 'openbind_d68ev3c_c1_knitwork_pure'}

>  <alias>  (83) 
C[C@H](NCc1nnnn1C1CCCCC1)c1cccnc1

>  <fragmenstein_mode>  (83) 
expansion

$$$$
